/*---------------------------------------------------------------------------*\
  =========                 |
  \\      /  F ield         | OpenFOAM: The Open Source CFD Toolbox
   \\    /   O peration     | Website:  https://openfoam.org
    \\  /    A nd           | Version:  7
     \\/     M anipulation  |
\*---------------------------------------------------------------------------*/
Build  : 7
Exec   : snappyHexMesh -parallel -overwrite -dict ../system/snappyHexMeshLayersDict
Date   : Feb 27 2023
Time   : 17:58:12
Host   : "compute-0-10.local"
PID    : 16724
I/O    : uncollated
Case   : /share/storage/finzeo/Mallas/GTS-Storms/malla1
nProcs : 20
Slaves : 
19
(
"compute-0-10.local.16725"
"compute-0-10.local.16726"
"compute-0-10.local.16727"
"compute-0-10.local.16728"
"compute-0-10.local.16729"
"compute-0-10.local.16730"
"compute-0-10.local.16731"
"compute-0-10.local.16732"
"compute-0-10.local.16733"
"compute-0-10.local.16734"
"compute-0-10.local.16735"
"compute-0-10.local.16736"
"compute-0-10.local.16737"
"compute-0-10.local.16738"
"compute-0-10.local.16739"
"compute-0-10.local.16740"
"compute-0-10.local.16741"
"compute-0-10.local.16742"
"compute-0-10.local.16743"
)

Pstream initialized with:
    floatTransfer      : 0
    nProcsSimpleSum    : 0
    commsType          : nonBlocking
    polling iterations : 0
sigFpe : Enabling floating point exception trapping (FOAM_SIGFPE).
fileModificationChecking : Monitoring run-time modified files using timeStampMaster (fileModificationSkew 10)
allowSystemOperations : Allowing user-supplied system call operations

// * * * * * * * * * * * * * * * * * * * * * * * * * * * * * * * * * * * * * //
Create time

Create mesh for time = 0

Read mesh in = 1.54 s

Overall mesh bounding box  : (-7.33428 -1.55327 -0.0762037) (4.37206 1.55327 2.05748)
Relative tolerance         : 1e-06
Absolute matching distance : 1.2298e-05

Reading refinement surfaces.
Read refinement surfaces in = 1.64 s

Reading refinement shells.
Refinement level according to distance to gtsModel
    level 4 for all cells within 0.05 metre.
Refinement level according to distance to floor
    level 4 for all cells within 0.05 metre.
Refinement level 1 for all cells inside refinementBoxFloor1
Refinement level 2 for all cells inside refinementBoxFloor2
Refinement level 3 for all cells inside refinementBoxFloor3
Refinement level 1 for all cells inside refinementBox1
Refinement level 2 for all cells inside refinementBox2
Refinement level 3 for all cells inside refinementBox3
Read refinement shells in = 0 s

Setting refinement level of surface to be consistent with shells.
Checked shell refinement in = 0 s

Reading features.
Read edgeMesh GTS-Storms.eMesh
    points      : 79122
    edges       : 127232
    boundingBox : (-2.47648 -0.161925 -0.0762) (0 0.161925 0.4508)

Refinement level according to distance to "GTS-Storms.eMesh" (79122 points, 127232 edges).
    level 5 for all cells within 0 metre.
Read features in = 0.41 s


Determining initial surface intersections
-----------------------------------------

Edge intersection testing:
    Number of edges             : 78581839
    Number of edges to retest   : 78581839
    Number of intersected edges : 1933770
Calculated surface intersections in = 14.31 s

Initial mesh : cells:25553096  faces:78581839  points:27482344
[1]  Foam::decompositionMethod::New 
[1] {
[1]     numberOfSubdomains 20;
[1]     method          scotch;
[1]     simpleCoeffs
[1]     {
[1]         n               ( 4 1 1 );
[1]         delta           0.001;
[1]     }
[1]     hierarchicalCoeffs
[1]     {
[1]         n               ( 3 2 1 );
[1]         delta           0.001;
[1]         order           xyz;
[1]     }
[1]     manualCoeffs
[1]     {
[1]         dataFile        "cellDecomposition";
[1]     }
[1]     scotchCoeffs
[1]     {
[1]         processorWeights ( 1 1 1 1 1 1 1 1 1 1 1 1 1 1 1 1 1 1 1 1 );
[1]     }
[1] }
[1] 
[1] Selecting decompositionMethod scotch
[2]  Foam::decompositionMethod::New 
[2] {
[2]     numberOfSubdomains 20;
[2]     method          scotch;
[2]     simpleCoeffs
[2]     {
[2]         n               ( 4 1 1 );
[2]         delta           0.001;
[2]     }
[2]     hierarchicalCoeffs
[2]     {
[2]         n               ( 3 2 1 );
[2]         delta           0.001;
[2]         order           xyz;
[2]     }
[2]     manualCoeffs
[2]     {
[2]         dataFile        "cellDecomposition";
[2]     }
[2]     scotchCoeffs
[2]     {
[2]         processorWeights ( 1 1 1 1 1 1 1 1 1 1 1 1 1 1 1 1 1 1 1 1 );
[2]     }
[2] }
[2] 
[2] Selecting decompositionMethod scotch
[3]  Foam::decompositionMethod::New 
[3] {
[3]     numberOfSubdomains 20;
[3]     method          scotch;
[3]     simpleCoeffs
[3]     {
[3]         n               ( 4 1 1 );
[3]         delta           0.001;
[3]     }
[3]     hierarchicalCoeffs
[3]     {
[3]         n               ( 3 2 1 );
[3]         delta           0.001;
[3]         order           xyz;
[3]     }
[3]     manualCoeffs
[3]     {
[3]         dataFile        "cellDecomposition";
[3]     }
[3]     scotchCoeffs
[3]     {
[3]         processorWeights ( 1 1 1 1 1 1 1 1 1 1 1 1 1 1 1 1 1 1 1 1 );
[3]     }
[3] }
[3] 
[3] Selecting decompositionMethod scotch
[4]  Foam::decompositionMethod::New 
[4] {
[4]     numberOfSubdomains 20;
[4]     method          scotch;
[4]     simpleCoeffs
[4]     {
[4]         n               ( 4 1 1 );
[4]         delta           0.001;
[4]     }
[4]     hierarchicalCoeffs
[4]     {
[4]         n               ( 3 2 1 );
[4]         delta           0.001;
[4]         order           xyz;
[4]     }
[4]     manualCoeffs
[4]     {
[4]         dataFile        "cellDecomposition";
[4]     }
[4]     scotchCoeffs
[4]     {
[4]         processorWeights ( 1 1 1 1 1 1 1 1 1 1 1 1 1 1 1 1 1 1 1 1 );
[4]     }
[4] }
[4] 
[4] Selecting decompositionMethod scotch
[5]  Foam::decompositionMethod::New 
[5] {
[5]     numberOfSubdomains 20;
[5]     method          scotch;
[5]     simpleCoeffs
[5]     {
[5]         n               ( 4 1 1 );
[5]         delta           0.001;
[5]     }
[5]     hierarchicalCoeffs
[5]     {
[5]         n               ( 3 2 1 );
[5]         delta           0.001;
[5]         order           xyz;
[5]     }
[5]     manualCoeffs
[5]     {
[5]         dataFile        "cellDecomposition";
[5]     }
[5]     scotchCoeffs
[5]     {
[5]         processorWeights ( 1 1 1 1 1 1 1 1 1 1 1 1 1 1 1 1 1 1 1 1 );
[5]     }
[5] }
[5] 
[5] Selecting decompositionMethod scotch
[6]  Foam::decompositionMethod::New 
[6] {
[6]     numberOfSubdomains 20;
[6]     method          scotch;
[6]     simpleCoeffs
[6]     {
[6]         n               ( 4 1 1 );
[6]         delta           0.001;
[6]     }
[6]     hierarchicalCoeffs
[6]     {
[6]         n               ( 3 2 1 );
[6]         delta           0.001;
[6]         order           xyz;
[6]     }
[6]     manualCoeffs
[6]     {
[6]         dataFile        "cellDecomposition";
[6]     }
[6]     scotchCoeffs
[6]     {
[6]         processorWeights ( 1 1 1 1 1 1 1 1 1 1 1 1 1 1 1 1 1 1 1 1 );
[6]     }
[6] }
[6] 
[6] Selecting decompositionMethod scotch
[7]  Foam::decompositionMethod::New 
[7] {
[7]     numberOfSubdomains 20;
[7]     method          scotch;
[7]     simpleCoeffs
[7]     {
[7]         n               ( 4 1 1 );
[7]         delta           0.001;
[7]     }
[7]     hierarchicalCoeffs
[7]     {
[7]         n               ( 3 2 1 );
[7]         delta           0.001;
[7]         order           xyz;
[7]     }
[7]     manualCoeffs
[7]     {
[7]         dataFile        "cellDecomposition";
[7]     }
[7]     scotchCoeffs
[7]     {
[7]         processorWeights ( 1 1 1 1 1 1 1 1 1 1 1 1 1 1 1 1 1 1 1 1 );
[7]     }
[7] }
[7] 
[7] Selecting decompositionMethod scotch
[8]  Foam::decompositionMethod::New 
[8] {
[8]     numberOfSubdomains 20;
[8]     method          scotch;
[8]     simpleCoeffs
[8]     {
[8]         n               ( 4 1 1 );
[8]         delta           0.001;
[8]     }
[8]     hierarchicalCoeffs
[8]     {
[8]         n               ( 3 2 1 );
[8]         delta           0.001;
[8]         order           xyz;
[8]     }
[8]     manualCoeffs
[8]     {
[8]         dataFile        "cellDecomposition";
[8]     }
[8]     scotchCoeffs
[8]     {
[8]         processorWeights ( 1 1 1 1 1 1 1 1 1 1 1 1 1 1 1 1 1 1 1 1 );
[8]     }
[8] }
[8] 
[8] Selecting decompositionMethod scotch
[9]  Foam::decompositionMethod::New 
[9] {
[9]     numberOfSubdomains 20;
[9]     method          scotch;
[9]     simpleCoeffs
[9]     {
[9]         n               ( 4 1 1 );
[9]         delta           0.001;
[9]     }
[9]     hierarchicalCoeffs
[9]     {
[9]         n               ( 3 2 1 );
[9]         delta           0.001;
[9]         order           xyz;
[9]     }
[9]     manualCoeffs
[9]     {
[9]         dataFile        "cellDecomposition";
[9]     }
[9]     scotchCoeffs
[9]     {
[9]         processorWeights ( 1 1 1 1 1 1 1 1 1 1 1 1 1 1 1 1 1 1 1 1 );
[9]     }
[9] }
[9] 
[9] Selecting decompositionMethod scotch
[10]  Foam::decompositionMethod::New 
[10] {
[10]     numberOfSubdomains 20;
[10]     method          scotch;
[10]     simpleCoeffs
[10]     {
[10]         n               ( 4 1 1 );
[10]         delta           0.001;
[10]     }
[10]     hierarchicalCoeffs
[10]     {
[10]         n               ( 3 2 1 );
[10]         delta           0.001;
[10]         order           xyz;
[10]     }
[10]     manualCoeffs
[10]     {
[10]         dataFile        "cellDecomposition";
[10]     }
[10]     scotchCoeffs
[10]     {
[10]         processorWeights ( 1 1 1 1 1 1 1 1 1 1 1 1 1 1 1 1 1 1 1 1 );
[10]     }
[10] }
[10] 
[10] Selecting decompositionMethod scotch
[11]  Foam::decompositionMethod::New 
[11] {
[11]     numberOfSubdomains 20;
[11]     method          scotch;
[11]     simpleCoeffs
[11]     {
[11]         n               ( 4 1 1 );
[11]         delta           0.001;
[11]     }
[11]     hierarchicalCoeffs
[11]     {
[11]         n               ( 3 2 1 );
[11]         delta           0.001;
[11]         order           xyz;
[11]     }
[11]     manualCoeffs
[11]     {
[11]         dataFile        "cellDecomposition";
[11]     }
[11]     scotchCoeffs
[11]     {
[11]         processorWeights ( 1 1 1 1 1 1 1 1 1 1 1 1 1 1 1 1 1 1 1 1 );
[11]     }
[11] }
[11] 
[11] Selecting decompositionMethod scotch
[12]  Foam::decompositionMethod::New 
[12] {
[12]     numberOfSubdomains 20;
[12]     method          scotch;
[12]     simpleCoeffs
[12]     {
[12]         n               ( 4 1 1 );
[12]         delta           0.001;
[12]     }
[12]     hierarchicalCoeffs
[12]     {
[12]         n               ( 3 2 1 );
[12]         delta           0.001;
[12]         order           xyz;
[12]     }
[12]     manualCoeffs
[12]     {
[12]         dataFile        "cellDecomposition";
[12]     }
[12]     scotchCoeffs
[12]     {
[12]         processorWeights ( 1 1 1 1 1 1 1 1 1 1 1 1 1 1 1 1 1 1 1 1 );
[12]     }
[12] }
[12] 
[12] Selecting decompositionMethod scotch
[13]  Foam::decompositionMethod::New 
[13] {
[13]     numberOfSubdomains 20;
[13]     method          scotch;
[13]     simpleCoeffs
[13]     {
[13]         n               ( 4 1 1 );
[13]         delta           0.001;
[13]     }
[13]     hierarchicalCoeffs
[13]     {
[13]         n               ( 3 2 1 );
[13]         delta           0.001;
[13]         order           xyz;
[13]     }
[13]     manualCoeffs
[13]     {
[13]         dataFile        "cellDecomposition";
[13]     }
[13]     scotchCoeffs
[13]     {
[13]         processorWeights ( 1 1 1 1 1 1 1 1 1 1 1 1 1 1 1 1 1 1 1 1 );
[13]     }
[13] }
[13] 
[13] Selecting decompositionMethod scotch
[14]  Foam::decompositionMethod::New 
[14] {
[14]     numberOfSubdomains 20;
[14]     method          scotch;
[14]     simpleCoeffs
[14]     {
[14]         n               ( 4 1 1 );
[14]         delta           0.001;
[14]     }
[14]     hierarchicalCoeffs
[14]     {
[14]         n               ( 3 2 1 );
[14]         delta           0.001;
[14]         order           xyz;
[14]     }
[14]     manualCoeffs
[14]     {
[14]         dataFile        "cellDecomposition";
[14]     }
[14]     scotchCoeffs
[14]     {
[14]         processorWeights ( 1 1 1 1 1 1 1 1 1 1 1 1 1 1 1 1 1 1 1 1 );
[14]     }
[14] }
[14] 
[14] Selecting decompositionMethod scotch
[15]  Foam::decompositionMethod::New 
[15] {
[15]     numberOfSubdomains 20;
[15]     method          scotch;
[15]     simpleCoeffs
[15]     {
[15]         n               ( 4 1 1 );
[15]         delta           0.001;
[15]     }
[15]     hierarchicalCoeffs
[15]     {
[15]         n               ( 3 2 1 );
[15]         delta           0.001;
[15]         order           xyz;
[15]     }
[15]     manualCoeffs
[15]     {
[15]         dataFile        "cellDecomposition";
[15]     }
[15]     scotchCoeffs
[15]     {
[15]         processorWeights ( 1 1 1 1 1 1 1 1 1 1 1 1 1 1 1 1 1 1 1 1 );
[15]     }
[15] }
[15] 
[15] Selecting decompositionMethod scotch
[16]  Foam::decompositionMethod::New 
[16] {
[16]     numberOfSubdomains 20;
[16]     method          scotch;
[16]     simpleCoeffs
[16]     {
[16]         n               ( 4 1 1 );
[16]         delta           0.001;
[16]     }
[16]     hierarchicalCoeffs
[16]     {
[16]         n               ( 3 2 1 );
[16]         delta           0.001;
[16]         order           xyz;
[16]     }
[16]     manualCoeffs
[16]     {
[16]         dataFile        "cellDecomposition";
[16]     }
[16]     scotchCoeffs
[16]     {
[16]         processorWeights ( 1 1 1 1 1 1 1 1 1 1 1 1 1 1 1 1 1 1 1 1 );
[16]     }
[16] }
[16] 
[16] Selecting decompositionMethod scotch
[17]  Foam::decompositionMethod::New 
[17] {
[17]     numberOfSubdomains 20;
[17]     method          scotch;
[17]     simpleCoeffs
[17]     {
[17]         n               ( 4 1 1 );
[17]         delta           0.001;
[17]     }
[17]     hierarchicalCoeffs
[17]     {
[17]         n               ( 3 2 1 );
[17]         delta           0.001;
[17]         order           xyz;
[17]     }
[17]     manualCoeffs
[17]     {
[17]         dataFile        "cellDecomposition";
[17]     }
[17]     scotchCoeffs
[17]     {
[17]         processorWeights ( 1 1 1 1 1 1 1 1 1 1 1 1 1 1 1 1 1 1 1 1 );
[17]     }
[17] }
[17] 
[17] Selecting decompositionMethod scotch
[18]  Foam::decompositionMethod::New 
[18] {
[18]     numberOfSubdomains 20;
[18]     method          scotch;
[18]     simpleCoeffs
[18]     {
[18]         n               ( 4 1 1 );
[18]         delta           0.001;
[18]     }
[18]     hierarchicalCoeffs
[18]     {
[18]         n               ( 3 2 1 );
[18]         delta           0.001;
[18]         order           xyz;
[18]     }
[18]     manualCoeffs
[18]     {
[18]         dataFile        "cellDecomposition";
[18]     }
[18]     scotchCoeffs
[18]     {
[18]         processorWeights ( 1 1 1 1 1 1 1 1 1 1 1 1 1 1 1 1 1 1 1 1 );
[18]     }
[18] }
[18] 
[18] Selecting decompositionMethod scotch
[19]  Foam::decompositionMethod::New 
[19] {
[19]     numberOfSubdomains 20;
[19]     method          scotch;
[19]     simpleCoeffs
[19]     {
[19]         n               ( 4 1 1 );
[19]         delta           0.001;
[19]     }
[19]     hierarchicalCoeffs
[19]     {
[19]         n               ( 3 2 1 );
[19]         delta           0.001;
[19]         order           xyz;
[19]     }
[19]     manualCoeffs
[19]     {
[19]         dataFile        "cellDecomposition";
[19]     }
[19]     scotchCoeffs
[19]     {
[19]         processorWeights ( 1 1 1 1 1 1 1 1 1 1 1 1 1 1 1 1 1 1 1 1 );
[19]     }
[19] }
[19] 
[19] Selecting decompositionMethod scotch
Cells per refinement level:
    0	90160
    1	358238
    2	1333664
    3	5762220
    4	17543540
    5	465274

Adding patches for surface regions
----------------------------------

Patch Type                Region                        
----- ----                ------                        
gtsModel:

2     wall                gtsModel                      

inlet:

0     patch               inlet                         

outlet:

1     patch               outlet                        

left:

3     patch               left                          

right:

4     patch               right                         

top:

5     patch               top                           

floor:

6     wall                floor                         

Added patches in = 0.02 s

[0]  Foam::decompositionMethod::New 
[0] {
[0]     numberOfSubdomains 20;
[0]     method          scotch;
[0]     simpleCoeffs
[0]     {
[0]         n               ( 4 1 1 );
[0]         delta           0.001;
[0]     }
[0]     hierarchicalCoeffs
[0]     {
[0]         n               ( 3 2 1 );
[0]         delta           0.001;
[0]         order           xyz;
[0]     }
[0]     manualCoeffs
[0]     {
[0]         dataFile        "cellDecomposition";
[0]     }
[0]     scotchCoeffs
[0]     {
[0]         processorWeights ( 1 1 1 1 1 1 1 1 1 1 1 1 1 1 1 1 1 1 1 1 );
[0]     }
[0] }
[0] 
[0] Selecting decompositionMethod scotch
Layer thickness specified as final layer and expansion ratio.

Shrinking and layer addition phase
----------------------------------

Using mesh parameters 
{
    maxNonOrtho     65;
    maxBoundarySkewness 20;
    maxInternalSkewness 4;
    maxConcave      80;
    minVol          1e-13;
    minTetQuality   1e-15;
    minArea         -1;
    minTwist        0.05;
    minDeterminant  0.001;
    minFaceWeight   0.05;
    minVolRatio     0.01;
    minTriangleTwist -1;
    nSmoothScale    4;
    errorReduction  0.75;
}



Merging all faces of a cell
---------------------------
    - which are on the same patch
    - which make an angle < 180 degrees
      (cos:-1)
    - as long as the resulting face doesn't become concave by more than 90 degrees
      (0=straight, 180=fully concave)

Merging 232 sets of faces.

Edge intersection testing:
    Number of edges             : 78581607
    Number of edges to retest   : 1066
    Number of intersected edges : 1933452

Undo iteration 0
----------------
Checking faces in error :
    non-orthogonality > 65  degrees                        : 0
    faces with face pyramid volume < 1e-13                 : 0
    faces with face-decomposition tet quality < 1e-15      : 26
    faces with concavity > 80  degrees                     : 108
    faces with skewness > 4   (internal) or 20  (boundary) : 0
    faces with interpolation weights (0..1)  < 0.05        : 0
    faces with volume ratio of neighbour cells < 0.01      : 0
    faces with face twist < 0.05                           : 0
    faces on cells with determinant < 0.001                : 0
Masters that need to be restored:134
Edge intersection testing:
    Number of edges             : 78581741
    Number of edges to retest   : 728
    Number of intersected edges : 1933694


Undo iteration 1
----------------
Checking faces in error :
    non-orthogonality > 65  degrees                        : 0
    faces with face pyramid volume < 1e-13                 : 0
    faces with face-decomposition tet quality < 1e-15      : 0
    faces with concavity > 80  degrees                     : 0
    faces with skewness > 4   (internal) or 20  (boundary) : 0
    faces with interpolation weights (0..1)  < 0.05        : 0
    faces with volume ratio of neighbour cells < 0.01      : 0
    faces with face twist < 0.05                           : 0
    faces on cells with determinant < 0.001                : 0

Merging all points on surface that
- are used by only two boundary faces and
- make an angle with a cosine of more than -1.

Removing 49 straight edge points ...

Edge intersection testing:
    Number of edges             : 78581741
    Number of edges to retest   : 428
    Number of intersected edges : 1933696

Undo iteration 0
----------------
Checking faces in error :
    non-orthogonality > 65  degrees                        : 0
    faces with face pyramid volume < 1e-13                 : 0
    faces with face-decomposition tet quality < 1e-15      : 0
    faces with concavity > 80  degrees                     : 0
    faces with skewness > 4   (internal) or 20  (boundary) : 0
    faces with interpolation weights (0..1)  < 0.05        : 0
    faces with volume ratio of neighbour cells < 0.01      : 0
    faces with face twist < 0.05                           : 0
    faces on cells with determinant < 0.001                : 0

Checking mesh manifoldness ...
Outside of mesh is multiply connected across edges or points.
This is not a fatal error but might cause some unexpected behaviour.


Checking initial mesh ...
Checking faces in error :
    non-orthogonality > 65  degrees                        : 0
    faces with face pyramid volume < 1e-13                 : 0
    faces with face-decomposition tet quality < 1e-15      : 0
    faces with concavity > 80  degrees                     : 0
    faces with skewness > 4   (internal) or 20  (boundary) : 0
    faces with interpolation weights (0..1)  < 0.05        : 0
    faces with volume ratio of neighbour cells < 0.01      : 0
    faces with face twist < 0.05                           : 0
    faces on cells with determinant < 0.001                : 0
Detected 0 illegal faces (concave, zero area or negative cell pyramid volume)

Doing initial balancing
-----------------------

Found 0 zoned faces to keep together.
Found 0 separated coupled faces to keep together.

Adding in total 0 inter-processor patches to handle extrusion of non-manifold processor boundaries.

Handling points with inconsistent layer specification ...

Handling non-manifold points ...

Checking patch manifoldness ...
Outside of local patch is multiply connected across edges or points at 0 points.
Set displacement to zero for all 0 non-manifold points

Handling feature edges ...

Handling cells with warped patch faces ...
Set displacement to zero on 74 warped faces since layer would be > 0.5 of the size of the bounding box.

patch    faces    layers avg thickness[m]
                         near-wall overall
-----    -----    ------ --------- -------
gtsModel 248950   18     0.00031   0.0233  
left     40704    22     0.000627  0.0863  
right    40704    22     0.000627  0.0863  
top      6158     22     0.00352   0.485   
floor    1573963  18     0.000384  0.0292  

Selecting externalDisplacementMeshMover displacementMedialAxis
displacementMedialAxis : Calculating distance to Medial Axis ...
displacementMedialAxis : Smoothing normals ...
    Iteration 0   residual 0.00295464
displacementMedialAxis : Inserting points on patch inlet if angle to nearest layer patch > 80 degrees.
displacementMedialAxis : Inserting points on patch outlet if angle to nearest layer patch > 80 degrees.
displacementMedialAxis : Smoothing normals in interior ...
    Iteration 0   residual 0.00837015

Layer addition iteration 0
--------------------------

Determining displacement for added points according to pointNormal ...
Detected 0 points with point normal pointing through faces.
Reset displacement at 0 points to average of surrounding points.

displacementMedialAxis : Smoothing using Medial Axis ...
displacementMedialAxis : Reducing layer thickness at 311776 nodes where thickness to medial axis distance is large 
displacementMedialAxis : Removing isolated regions ...
displacementMedialAxis : Number of isolated points extrusion stopped : 44
displacementMedialAxis : Smoothing field ...
    Iteration 0   residual 3.1035e-05
displacementMedialAxis : Moving mesh ...
displacementMedialAxis : Iteration 0
Moving mesh using displacement scaling : min:1  max:1
Checking faces in error :
    non-orthogonality > 65  degrees                        : 171095
    faces with face pyramid volume < 1e-13                 : 44361
    faces with face-decomposition tet quality < 1e-15      : 24141
    faces with concavity > 80  degrees                     : 670
    faces with skewness > 4   (internal) or 20  (boundary) : 26
    faces with interpolation weights (0..1)  < 0.05        : 587
    faces with volume ratio of neighbour cells < 0.01      : 82
    faces with face twist < 0.05                           : 1304
    faces on cells with determinant < 0.001                : 711
displacementMedialAxis : Iteration 1
Moving mesh using displacement scaling : min:0.75  max:1
Checking faces in error :
    non-orthogonality > 65  degrees                        : 93457
    faces with face pyramid volume < 1e-13                 : 34995
    faces with face-decomposition tet quality < 1e-15      : 19152
    faces with concavity > 80  degrees                     : 11
    faces with skewness > 4   (internal) or 20  (boundary) : 466
    faces with interpolation weights (0..1)  < 0.05        : 362
    faces with volume ratio of neighbour cells < 0.01      : 45
    faces with face twist < 0.05                           : 552
    faces on cells with determinant < 0.001                : 180
displacementMedialAxis : Iteration 2
Moving mesh using displacement scaling : min:0.5625  max:1
Checking faces in error :
    non-orthogonality > 65  degrees                        : 45799
    faces with face pyramid volume < 1e-13                 : 24874
    faces with face-decomposition tet quality < 1e-15      : 5163
    faces with concavity > 80  degrees                     : 156
    faces with skewness > 4   (internal) or 20  (boundary) : 6
    faces with interpolation weights (0..1)  < 0.05        : 124
    faces with volume ratio of neighbour cells < 0.01      : 21
    faces with face twist < 0.05                           : 150
    faces on cells with determinant < 0.001                : 48
displacementMedialAxis : Iteration 3
Moving mesh using displacement scaling : min:0.421875  max:1
Checking faces in error :
    non-orthogonality > 65  degrees                        : 29338
    faces with face pyramid volume < 1e-13                 : 22823
    faces with face-decomposition tet quality < 1e-15      : 2979
    faces with concavity > 80  degrees                     : 0
    faces with skewness > 4   (internal) or 20  (boundary) : 0
    faces with interpolation weights (0..1)  < 0.05        : 282
    faces with volume ratio of neighbour cells < 0.01      : 29
    faces with face twist < 0.05                           : 15
    faces on cells with determinant < 0.001                : 39
displacementMedialAxis : Iteration 4
Moving mesh using displacement scaling : min:0.316406  max:1
Checking faces in error :
    non-orthogonality > 65  degrees                        : 11601
    faces with face pyramid volume < 1e-13                 : 4625
    faces with face-decomposition tet quality < 1e-15      : 7054
    faces with concavity > 80  degrees                     : 0
    faces with skewness > 4   (internal) or 20  (boundary) : 0
    faces with interpolation weights (0..1)  < 0.05        : 332
    faces with volume ratio of neighbour cells < 0.01      : 94
    faces with face twist < 0.05                           : 437
    faces on cells with determinant < 0.001                : 172
displacementMedialAxis : Iteration 5
displacementMedialAxis : Displacement scaling for error reduction set to 0.
Moving mesh using displacement scaling : min:0.237305  max:1
Checking faces in error :
    non-orthogonality > 65  degrees                        : 2416
    faces with face pyramid volume < 1e-13                 : 351
    faces with face-decomposition tet quality < 1e-15      : 653
    faces with concavity > 80  degrees                     : 0
    faces with skewness > 4   (internal) or 20  (boundary) : 0
    faces with interpolation weights (0..1)  < 0.05        : 7
    faces with volume ratio of neighbour cells < 0.01      : 6
    faces with face twist < 0.05                           : 11
    faces on cells with determinant < 0.001                : 5
displacementMedialAxis : Iteration 6
Moving mesh using displacement scaling : min:0  max:1
Checking faces in error :
    non-orthogonality > 65  degrees                        : 11579
    faces with face pyramid volume < 1e-13                 : 814
    faces with face-decomposition tet quality < 1e-15      : 1110
    faces with concavity > 80  degrees                     : 0
    faces with skewness > 4   (internal) or 20  (boundary) : 0
    faces with interpolation weights (0..1)  < 0.05        : 39
    faces with volume ratio of neighbour cells < 0.01      : 3
    faces with face twist < 0.05                           : 9
    faces on cells with determinant < 0.001                : 82
displacementMedialAxis : Iteration 7
Moving mesh using displacement scaling : min:0  max:1
Checking faces in error :
    non-orthogonality > 65  degrees                        : 19417
    faces with face pyramid volume < 1e-13                 : 1166
    faces with face-decomposition tet quality < 1e-15      : 2152
    faces with concavity > 80  degrees                     : 16
    faces with skewness > 4   (internal) or 20  (boundary) : 0
    faces with interpolation weights (0..1)  < 0.05        : 174
    faces with volume ratio of neighbour cells < 0.01      : 4
    faces with face twist < 0.05                           : 26
    faces on cells with determinant < 0.001                : 112
displacementMedialAxis : Iteration 8
Moving mesh using displacement scaling : min:0  max:1
Checking faces in error :
    non-orthogonality > 65  degrees                        : 30006
    faces with face pyramid volume < 1e-13                 : 1984
    faces with face-decomposition tet quality < 1e-15      : 3432
    faces with concavity > 80  degrees                     : 8
    faces with skewness > 4   (internal) or 20  (boundary) : 0
    faces with interpolation weights (0..1)  < 0.05        : 121
    faces with volume ratio of neighbour cells < 0.01      : 18
    faces with face twist < 0.05                           : 38
    faces on cells with determinant < 0.001                : 150
displacementMedialAxis : Iteration 9
Moving mesh using displacement scaling : min:0  max:1
Checking faces in error :
    non-orthogonality > 65  degrees                        : 37659
    faces with face pyramid volume < 1e-13                 : 2777
    faces with face-decomposition tet quality < 1e-15      : 4440
    faces with concavity > 80  degrees                     : 7
    faces with skewness > 4   (internal) or 20  (boundary) : 9
    faces with interpolation weights (0..1)  < 0.05        : 163
    faces with volume ratio of neighbour cells < 0.01      : 23
    faces with face twist < 0.05                           : 65
    faces on cells with determinant < 0.001                : 44
displacementMedialAxis : Finished moving mesh ...
truncateDisplacement : Unextruded 0 faces due to non-consecutive vertices being extruded.
truncateDisplacement : Unextruded 0 faces due to stringed edges with inconsistent extrusion.

Setting up information for layer truncation ...

Checking mesh with layer ...
Checking faces in error :
    non-orthogonality > 65  degrees                        : 39842
    faces with face pyramid volume < 1e-13                 : 2029
    faces with face-decomposition tet quality < 1e-15      : 11867
    faces with concavity > 80  degrees                     : 7
    faces with skewness > 4   (internal) or 20  (boundary) : 8352
    faces with interpolation weights (0..1)  < 0.05        : 182
    faces with volume ratio of neighbour cells < 0.01      : 41
    faces with face twist < 0.05                           : 16
    faces on cells with determinant < 0.001                : 37817
Detected 100153 illegal faces (concave, zero area or negative cell pyramid volume)
Extruding 1886546 out of 1910479 faces (98.7473%). Removed extrusion at 10825 faces.
Added 33135391 out of 34758742 cells (95.3297%).


Layer addition iteration 1
--------------------------

Determining displacement for added points according to pointNormal ...
Detected 0 points with point normal pointing through faces.
Reset displacement at 0 points to average of surrounding points.

displacementMedialAxis : Smoothing using Medial Axis ...
displacementMedialAxis : Reducing layer thickness at 291655 nodes where thickness to medial axis distance is large 
displacementMedialAxis : Removing isolated regions ...
displacementMedialAxis : Number of isolated points extrusion stopped : 1002
displacementMedialAxis : Smoothing field ...
    Iteration 0   residual 5.57874e-05
displacementMedialAxis : Moving mesh ...
displacementMedialAxis : Iteration 0
Moving mesh using displacement scaling : min:1  max:1
Checking faces in error :
    non-orthogonality > 65  degrees                        : 74784
    faces with face pyramid volume < 1e-13                 : 14249
    faces with face-decomposition tet quality < 1e-15      : 14617
    faces with concavity > 80  degrees                     : 320
    faces with skewness > 4   (internal) or 20  (boundary) : 24
    faces with interpolation weights (0..1)  < 0.05        : 288
    faces with volume ratio of neighbour cells < 0.01      : 157
    faces with face twist < 0.05                           : 799
    faces on cells with determinant < 0.001                : 384
displacementMedialAxis : Iteration 1
Moving mesh using displacement scaling : min:0.75  max:1
Checking faces in error :
    non-orthogonality > 65  degrees                        : 30223
    faces with face pyramid volume < 1e-13                 : 7809
    faces with face-decomposition tet quality < 1e-15      : 7618
    faces with concavity > 80  degrees                     : 53
    faces with skewness > 4   (internal) or 20  (boundary) : 52
    faces with interpolation weights (0..1)  < 0.05        : 91
    faces with volume ratio of neighbour cells < 0.01      : 16
    faces with face twist < 0.05                           : 211
    faces on cells with determinant < 0.001                : 43
displacementMedialAxis : Iteration 2
Moving mesh using displacement scaling : min:0.5625  max:1
Checking faces in error :
    non-orthogonality > 65  degrees                        : 13766
    faces with face pyramid volume < 1e-13                 : 4680
    faces with face-decomposition tet quality < 1e-15      : 6323
    faces with concavity > 80  degrees                     : 37
    faces with skewness > 4   (internal) or 20  (boundary) : 2
    faces with interpolation weights (0..1)  < 0.05        : 37
    faces with volume ratio of neighbour cells < 0.01      : 66
    faces with face twist < 0.05                           : 126
    faces on cells with determinant < 0.001                : 7
displacementMedialAxis : Iteration 3
Moving mesh using displacement scaling : min:0.421875  max:1
Checking faces in error :
    non-orthogonality > 65  degrees                        : 8153
    faces with face pyramid volume < 1e-13                 : 3378
    faces with face-decomposition tet quality < 1e-15      : 4321
    faces with concavity > 80  degrees                     : 8
    faces with skewness > 4   (internal) or 20  (boundary) : 0
    faces with interpolation weights (0..1)  < 0.05        : 161
    faces with volume ratio of neighbour cells < 0.01      : 14
    faces with face twist < 0.05                           : 85
    faces on cells with determinant < 0.001                : 16
displacementMedialAxis : Iteration 4
Moving mesh using displacement scaling : min:0.316406  max:1
Checking faces in error :
    non-orthogonality > 65  degrees                        : 5820
    faces with face pyramid volume < 1e-13                 : 1314
    faces with face-decomposition tet quality < 1e-15      : 2890
    faces with concavity > 80  degrees                     : 7
    faces with skewness > 4   (internal) or 20  (boundary) : 3
    faces with interpolation weights (0..1)  < 0.05        : 142
    faces with volume ratio of neighbour cells < 0.01      : 50
    faces with face twist < 0.05                           : 48
    faces on cells with determinant < 0.001                : 29
displacementMedialAxis : Iteration 5
displacementMedialAxis : Displacement scaling for error reduction set to 0.
Moving mesh using displacement scaling : min:0.237305  max:1
Checking faces in error :
    non-orthogonality > 65  degrees                        : 4438
    faces with face pyramid volume < 1e-13                 : 1147
    faces with face-decomposition tet quality < 1e-15      : 2065
    faces with concavity > 80  degrees                     : 10
    faces with skewness > 4   (internal) or 20  (boundary) : 4
    faces with interpolation weights (0..1)  < 0.05        : 46
    faces with volume ratio of neighbour cells < 0.01      : 34
    faces with face twist < 0.05                           : 30
    faces on cells with determinant < 0.001                : 19
displacementMedialAxis : Iteration 6
Moving mesh using displacement scaling : min:0  max:1
Checking faces in error :
    non-orthogonality > 65  degrees                        : 21873
    faces with face pyramid volume < 1e-13                 : 1331
    faces with face-decomposition tet quality < 1e-15      : 2931
    faces with concavity > 80  degrees                     : 4
    faces with skewness > 4   (internal) or 20  (boundary) : 0
    faces with interpolation weights (0..1)  < 0.05        : 77
    faces with volume ratio of neighbour cells < 0.01      : 17
    faces with face twist < 0.05                           : 22
    faces on cells with determinant < 0.001                : 22
displacementMedialAxis : Iteration 7
Moving mesh using displacement scaling : min:0  max:1
Checking faces in error :
    non-orthogonality > 65  degrees                        : 38231
    faces with face pyramid volume < 1e-13                 : 2008
    faces with face-decomposition tet quality < 1e-15      : 5446
    faces with concavity > 80  degrees                     : 34
    faces with skewness > 4   (internal) or 20  (boundary) : 2
    faces with interpolation weights (0..1)  < 0.05        : 204
    faces with volume ratio of neighbour cells < 0.01      : 19
    faces with face twist < 0.05                           : 49
    faces on cells with determinant < 0.001                : 20
displacementMedialAxis : Iteration 8
Moving mesh using displacement scaling : min:0  max:1
Checking faces in error :
    non-orthogonality > 65  degrees                        : 48704
    faces with face pyramid volume < 1e-13                 : 3675
    faces with face-decomposition tet quality < 1e-15      : 6814
    faces with concavity > 80  degrees                     : 33
    faces with skewness > 4   (internal) or 20  (boundary) : 2
    faces with interpolation weights (0..1)  < 0.05        : 163
    faces with volume ratio of neighbour cells < 0.01      : 18
    faces with face twist < 0.05                           : 32
    faces on cells with determinant < 0.001                : 42
displacementMedialAxis : Iteration 9
Moving mesh using displacement scaling : min:0  max:1
Checking faces in error :
    non-orthogonality > 65  degrees                        : 45824
    faces with face pyramid volume < 1e-13                 : 2993
    faces with face-decomposition tet quality < 1e-15      : 7130
    faces with concavity > 80  degrees                     : 44
    faces with skewness > 4   (internal) or 20  (boundary) : 3
    faces with interpolation weights (0..1)  < 0.05        : 243
    faces with volume ratio of neighbour cells < 0.01      : 18
    faces with face twist < 0.05                           : 107
    faces on cells with determinant < 0.001                : 89
displacementMedialAxis : Finished moving mesh ...
truncateDisplacement : Unextruded 44 faces due to non-consecutive vertices being extruded.
truncateDisplacement : Unextruded 0 faces due to stringed edges with inconsistent extrusion.
truncateDisplacement : Unextruded 0 faces due to non-consecutive vertices being extruded.
truncateDisplacement : Unextruded 0 faces due to stringed edges with inconsistent extrusion.

Setting up information for layer truncation ...

Checking mesh with layer ...
Checking faces in error :
    non-orthogonality > 65  degrees                        : 48066
    faces with face pyramid volume < 1e-13                 : 2130
    faces with face-decomposition tet quality < 1e-15      : 7695
    faces with concavity > 80  degrees                     : 44
    faces with skewness > 4   (internal) or 20  (boundary) : 5
    faces with interpolation weights (0..1)  < 0.05        : 317
    faces with volume ratio of neighbour cells < 0.01      : 31
    faces with face twist < 0.05                           : 31
    faces on cells with determinant < 0.001                : 93
Detected 58412 illegal faces (concave, zero area or negative cell pyramid volume)
Extruding 1867630 out of 1910479 faces (97.7572%). Removed extrusion at 2559 faces.
Added 30684607 out of 34758742 cells (88.2788%).


Layer addition iteration 2
--------------------------

Determining displacement for added points according to pointNormal ...
Detected 0 points with point normal pointing through faces.
Reset displacement at 0 points to average of surrounding points.

displacementMedialAxis : Smoothing using Medial Axis ...
displacementMedialAxis : Reducing layer thickness at 290797 nodes where thickness to medial axis distance is large 
displacementMedialAxis : Removing isolated regions ...
displacementMedialAxis : Number of isolated points extrusion stopped : 1039
displacementMedialAxis : Smoothing field ...
    Iteration 0   residual 5.80992e-05
displacementMedialAxis : Moving mesh ...
displacementMedialAxis : Iteration 0
Moving mesh using displacement scaling : min:1  max:1
Checking faces in error :
    non-orthogonality > 65  degrees                        : 82214
    faces with face pyramid volume < 1e-13                 : 14358
    faces with face-decomposition tet quality < 1e-15      : 16745
    faces with concavity > 80  degrees                     : 359
    faces with skewness > 4   (internal) or 20  (boundary) : 25
    faces with interpolation weights (0..1)  < 0.05        : 302
    faces with volume ratio of neighbour cells < 0.01      : 108
    faces with face twist < 0.05                           : 781
    faces on cells with determinant < 0.001                : 437
displacementMedialAxis : Iteration 1
Moving mesh using displacement scaling : min:0.75  max:1
Checking faces in error :
    non-orthogonality > 65  degrees                        : 32996
    faces with face pyramid volume < 1e-13                 : 7657
    faces with face-decomposition tet quality < 1e-15      : 8613
    faces with concavity > 80  degrees                     : 62
    faces with skewness > 4   (internal) or 20  (boundary) : 53
    faces with interpolation weights (0..1)  < 0.05        : 96
    faces with volume ratio of neighbour cells < 0.01      : 12
    faces with face twist < 0.05                           : 253
    faces on cells with determinant < 0.001                : 156
displacementMedialAxis : Iteration 2
Moving mesh using displacement scaling : min:0.5625  max:1
Checking faces in error :
    non-orthogonality > 65  degrees                        : 14639
    faces with face pyramid volume < 1e-13                 : 4460
    faces with face-decomposition tet quality < 1e-15      : 7058
    faces with concavity > 80  degrees                     : 47
    faces with skewness > 4   (internal) or 20  (boundary) : 2
    faces with interpolation weights (0..1)  < 0.05        : 44
    faces with volume ratio of neighbour cells < 0.01      : 45
    faces with face twist < 0.05                           : 142
    faces on cells with determinant < 0.001                : 51
displacementMedialAxis : Iteration 3
Moving mesh using displacement scaling : min:0.421875  max:1
Checking faces in error :
    non-orthogonality > 65  degrees                        : 7948
    faces with face pyramid volume < 1e-13                 : 2898
    faces with face-decomposition tet quality < 1e-15      : 4153
    faces with concavity > 80  degrees                     : 15
    faces with skewness > 4   (internal) or 20  (boundary) : 0
    faces with interpolation weights (0..1)  < 0.05        : 140
    faces with volume ratio of neighbour cells < 0.01      : 20
    faces with face twist < 0.05                           : 81
    faces on cells with determinant < 0.001                : 44
displacementMedialAxis : Iteration 4
Moving mesh using displacement scaling : min:0.316406  max:1
Checking faces in error :
    non-orthogonality > 65  degrees                        : 4660
    faces with face pyramid volume < 1e-13                 : 1009
    faces with face-decomposition tet quality < 1e-15      : 2788
    faces with concavity > 80  degrees                     : 17
    faces with skewness > 4   (internal) or 20  (boundary) : 3
    faces with interpolation weights (0..1)  < 0.05        : 90
    faces with volume ratio of neighbour cells < 0.01      : 35
    faces with face twist < 0.05                           : 42
    faces on cells with determinant < 0.001                : 9
displacementMedialAxis : Iteration 5
displacementMedialAxis : Displacement scaling for error reduction set to 0.
Moving mesh using displacement scaling : min:0.237305  max:1
Checking faces in error :
    non-orthogonality > 65  degrees                        : 3590
    faces with face pyramid volume < 1e-13                 : 779
    faces with face-decomposition tet quality < 1e-15      : 2065
    faces with concavity > 80  degrees                     : 11
    faces with skewness > 4   (internal) or 20  (boundary) : 0
    faces with interpolation weights (0..1)  < 0.05        : 34
    faces with volume ratio of neighbour cells < 0.01      : 8
    faces with face twist < 0.05                           : 41
    faces on cells with determinant < 0.001                : 21
displacementMedialAxis : Iteration 6
Moving mesh using displacement scaling : min:0  max:1
Checking faces in error :
    non-orthogonality > 65  degrees                        : 29297
    faces with face pyramid volume < 1e-13                 : 1819
    faces with face-decomposition tet quality < 1e-15      : 4294
    faces with concavity > 80  degrees                     : 33
    faces with skewness > 4   (internal) or 20  (boundary) : 6
    faces with interpolation weights (0..1)  < 0.05        : 137
    faces with volume ratio of neighbour cells < 0.01      : 33
    faces with face twist < 0.05                           : 42
    faces on cells with determinant < 0.001                : 107
displacementMedialAxis : Iteration 7
Moving mesh using displacement scaling : min:0  max:1
Checking faces in error :
    non-orthogonality > 65  degrees                        : 44168
    faces with face pyramid volume < 1e-13                 : 2481
    faces with face-decomposition tet quality < 1e-15      : 6047
    faces with concavity > 80  degrees                     : 54
    faces with skewness > 4   (internal) or 20  (boundary) : 1
    faces with interpolation weights (0..1)  < 0.05        : 229
    faces with volume ratio of neighbour cells < 0.01      : 18
    faces with face twist < 0.05                           : 45
    faces on cells with determinant < 0.001                : 78
displacementMedialAxis : Iteration 8
Moving mesh using displacement scaling : min:0  max:1
Checking faces in error :
    non-orthogonality > 65  degrees                        : 48439
    faces with face pyramid volume < 1e-13                 : 3947
    faces with face-decomposition tet quality < 1e-15      : 6301
    faces with concavity > 80  degrees                     : 24
    faces with skewness > 4   (internal) or 20  (boundary) : 4
    faces with interpolation weights (0..1)  < 0.05        : 215
    faces with volume ratio of neighbour cells < 0.01      : 44
    faces with face twist < 0.05                           : 65
    faces on cells with determinant < 0.001                : 64
displacementMedialAxis : Iteration 9
Moving mesh using displacement scaling : min:0  max:1
Checking faces in error :
    non-orthogonality > 65  degrees                        : 44516
    faces with face pyramid volume < 1e-13                 : 2839
    faces with face-decomposition tet quality < 1e-15      : 5670
    faces with concavity > 80  degrees                     : 38
    faces with skewness > 4   (internal) or 20  (boundary) : 5
    faces with interpolation weights (0..1)  < 0.05        : 204
    faces with volume ratio of neighbour cells < 0.01      : 23
    faces with face twist < 0.05                           : 100
    faces on cells with determinant < 0.001                : 79
displacementMedialAxis : Finished moving mesh ...
truncateDisplacement : Unextruded 42 faces due to non-consecutive vertices being extruded.
truncateDisplacement : Unextruded 0 faces due to stringed edges with inconsistent extrusion.
truncateDisplacement : Unextruded 4 faces due to non-consecutive vertices being extruded.
truncateDisplacement : Unextruded 0 faces due to stringed edges with inconsistent extrusion.
truncateDisplacement : Unextruded 0 faces due to non-consecutive vertices being extruded.
truncateDisplacement : Unextruded 0 faces due to stringed edges with inconsistent extrusion.

Setting up information for layer truncation ...

Checking mesh with layer ...
Checking faces in error :
    non-orthogonality > 65  degrees                        : 46609
    faces with face pyramid volume < 1e-13                 : 1997
    faces with face-decomposition tet quality < 1e-15      : 6226
    faces with concavity > 80  degrees                     : 38
    faces with skewness > 4   (internal) or 20  (boundary) : 3
    faces with interpolation weights (0..1)  < 0.05        : 285
    faces with volume ratio of neighbour cells < 0.01      : 36
    faces with face twist < 0.05                           : 60
    faces on cells with determinant < 0.001                : 100
Detected 55354 illegal faces (concave, zero area or negative cell pyramid volume)
Extruding 1848550 out of 1910479 faces (96.7585%). Removed extrusion at 2283 faces.
Added 30274408 out of 34758742 cells (87.0987%).


Layer addition iteration 3
--------------------------

Determining displacement for added points according to pointNormal ...
Detected 0 points with point normal pointing through faces.
Reset displacement at 0 points to average of surrounding points.

displacementMedialAxis : Smoothing using Medial Axis ...
displacementMedialAxis : Reducing layer thickness at 290656 nodes where thickness to medial axis distance is large 
displacementMedialAxis : Removing isolated regions ...
displacementMedialAxis : Number of isolated points extrusion stopped : 731
displacementMedialAxis : Smoothing field ...
    Iteration 0   residual 5.906e-05
displacementMedialAxis : Moving mesh ...
displacementMedialAxis : Iteration 0
Moving mesh using displacement scaling : min:1  max:1
Checking faces in error :
    non-orthogonality > 65  degrees                        : 78587
    faces with face pyramid volume < 1e-13                 : 14104
    faces with face-decomposition tet quality < 1e-15      : 13862
    faces with concavity > 80  degrees                     : 448
    faces with skewness > 4   (internal) or 20  (boundary) : 25
    faces with interpolation weights (0..1)  < 0.05        : 264
    faces with volume ratio of neighbour cells < 0.01      : 76
    faces with face twist < 0.05                           : 758
    faces on cells with determinant < 0.001                : 352
displacementMedialAxis : Iteration 1
Moving mesh using displacement scaling : min:0.75  max:1
Checking faces in error :
    non-orthogonality > 65  degrees                        : 29193
    faces with face pyramid volume < 1e-13                 : 7527
    faces with face-decomposition tet quality < 1e-15      : 6472
    faces with concavity > 80  degrees                     : 49
    faces with skewness > 4   (internal) or 20  (boundary) : 53
    faces with interpolation weights (0..1)  < 0.05        : 85
    faces with volume ratio of neighbour cells < 0.01      : 12
    faces with face twist < 0.05                           : 201
    faces on cells with determinant < 0.001                : 47
displacementMedialAxis : Iteration 2
Moving mesh using displacement scaling : min:0.5625  max:1
Checking faces in error :
    non-orthogonality > 65  degrees                        : 12798
    faces with face pyramid volume < 1e-13                 : 4472
    faces with face-decomposition tet quality < 1e-15      : 5631
    faces with concavity > 80  degrees                     : 28
    faces with skewness > 4   (internal) or 20  (boundary) : 2
    faces with interpolation weights (0..1)  < 0.05        : 45
    faces with volume ratio of neighbour cells < 0.01      : 36
    faces with face twist < 0.05                           : 150
    faces on cells with determinant < 0.001                : 13
displacementMedialAxis : Iteration 3
Moving mesh using displacement scaling : min:0.421875  max:1
Checking faces in error :
    non-orthogonality > 65  degrees                        : 6654
    faces with face pyramid volume < 1e-13                 : 2919
    faces with face-decomposition tet quality < 1e-15      : 3570
    faces with concavity > 80  degrees                     : 6
    faces with skewness > 4   (internal) or 20  (boundary) : 0
    faces with interpolation weights (0..1)  < 0.05        : 147
    faces with volume ratio of neighbour cells < 0.01      : 12
    faces with face twist < 0.05                           : 84
    faces on cells with determinant < 0.001                : 16
displacementMedialAxis : Iteration 4
Moving mesh using displacement scaling : min:0.316406  max:1
Checking faces in error :
    non-orthogonality > 65  degrees                        : 3491
    faces with face pyramid volume < 1e-13                 : 852
    faces with face-decomposition tet quality < 1e-15      : 2188
    faces with concavity > 80  degrees                     : 1
    faces with skewness > 4   (internal) or 20  (boundary) : 3
    faces with interpolation weights (0..1)  < 0.05        : 91
    faces with volume ratio of neighbour cells < 0.01      : 20
    faces with face twist < 0.05                           : 30
    faces on cells with determinant < 0.001                : 9
displacementMedialAxis : Iteration 5
displacementMedialAxis : Displacement scaling for error reduction set to 0.
Moving mesh using displacement scaling : min:0.237305  max:1
Checking faces in error :
    non-orthogonality > 65  degrees                        : 2296
    faces with face pyramid volume < 1e-13                 : 509
    faces with face-decomposition tet quality < 1e-15      : 1445
    faces with concavity > 80  degrees                     : 6
    faces with skewness > 4   (internal) or 20  (boundary) : 0
    faces with interpolation weights (0..1)  < 0.05        : 37
    faces with volume ratio of neighbour cells < 0.01      : 22
    faces with face twist < 0.05                           : 22
    faces on cells with determinant < 0.001                : 34
displacementMedialAxis : Iteration 6
Moving mesh using displacement scaling : min:0  max:1
Checking faces in error :
    non-orthogonality > 65  degrees                        : 21854
    faces with face pyramid volume < 1e-13                 : 1247
    faces with face-decomposition tet quality < 1e-15      : 2989
    faces with concavity > 80  degrees                     : 19
    faces with skewness > 4   (internal) or 20  (boundary) : 2
    faces with interpolation weights (0..1)  < 0.05        : 91
    faces with volume ratio of neighbour cells < 0.01      : 11
    faces with face twist < 0.05                           : 30
    faces on cells with determinant < 0.001                : 54
displacementMedialAxis : Iteration 7
Moving mesh using displacement scaling : min:0  max:1
Checking faces in error :
    non-orthogonality > 65  degrees                        : 38390
    faces with face pyramid volume < 1e-13                 : 1885
    faces with face-decomposition tet quality < 1e-15      : 5223
    faces with concavity > 80  degrees                     : 13
    faces with skewness > 4   (internal) or 20  (boundary) : 3
    faces with interpolation weights (0..1)  < 0.05        : 164
    faces with volume ratio of neighbour cells < 0.01      : 10
    faces with face twist < 0.05                           : 51
    faces on cells with determinant < 0.001                : 31
displacementMedialAxis : Iteration 8
Moving mesh using displacement scaling : min:0  max:1
Checking faces in error :
    non-orthogonality > 65  degrees                        : 47432
    faces with face pyramid volume < 1e-13                 : 3748
    faces with face-decomposition tet quality < 1e-15      : 5608
    faces with concavity > 80  degrees                     : 32
    faces with skewness > 4   (internal) or 20  (boundary) : 4
    faces with interpolation weights (0..1)  < 0.05        : 225
    faces with volume ratio of neighbour cells < 0.01      : 21
    faces with face twist < 0.05                           : 59
    faces on cells with determinant < 0.001                : 38
displacementMedialAxis : Iteration 9
Moving mesh using displacement scaling : min:0  max:1
Checking faces in error :
    non-orthogonality > 65  degrees                        : 43142
    faces with face pyramid volume < 1e-13                 : 2851
    faces with face-decomposition tet quality < 1e-15      : 5598
    faces with concavity > 80  degrees                     : 49
    faces with skewness > 4   (internal) or 20  (boundary) : 0
    faces with interpolation weights (0..1)  < 0.05        : 183
    faces with volume ratio of neighbour cells < 0.01      : 18
    faces with face twist < 0.05                           : 102
    faces on cells with determinant < 0.001                : 30
displacementMedialAxis : Finished moving mesh ...
truncateDisplacement : Unextruded 28 faces due to non-consecutive vertices being extruded.
truncateDisplacement : Unextruded 0 faces due to stringed edges with inconsistent extrusion.
truncateDisplacement : Unextruded 0 faces due to non-consecutive vertices being extruded.
truncateDisplacement : Unextruded 0 faces due to stringed edges with inconsistent extrusion.

Setting up information for layer truncation ...

Checking mesh with layer ...
Checking faces in error :
    non-orthogonality > 65  degrees                        : 45093
    faces with face pyramid volume < 1e-13                 : 1953
    faces with face-decomposition tet quality < 1e-15      : 6057
    faces with concavity > 80  degrees                     : 49
    faces with skewness > 4   (internal) or 20  (boundary) : 0
    faces with interpolation weights (0..1)  < 0.05        : 216
    faces with volume ratio of neighbour cells < 0.01      : 34
    faces with face twist < 0.05                           : 16
    faces on cells with determinant < 0.001                : 40
Detected 53458 illegal faces (concave, zero area or negative cell pyramid volume)
Extruding 1832681 out of 1910479 faces (95.9278%). Removed extrusion at 2183 faces.
Added 29930963 out of 34758742 cells (86.1106%).


Layer addition iteration 4
--------------------------

Determining displacement for added points according to pointNormal ...
Detected 0 points with point normal pointing through faces.
Reset displacement at 0 points to average of surrounding points.

displacementMedialAxis : Smoothing using Medial Axis ...
displacementMedialAxis : Reducing layer thickness at 290602 nodes where thickness to medial axis distance is large 
displacementMedialAxis : Removing isolated regions ...
displacementMedialAxis : Number of isolated points extrusion stopped : 650
displacementMedialAxis : Smoothing field ...
    Iteration 0   residual 6.02915e-05
displacementMedialAxis : Moving mesh ...
displacementMedialAxis : Iteration 0
Moving mesh using displacement scaling : min:1  max:1
Checking faces in error :
    non-orthogonality > 65  degrees                        : 79519
    faces with face pyramid volume < 1e-13                 : 14095
    faces with face-decomposition tet quality < 1e-15      : 13916
    faces with concavity > 80  degrees                     : 445
    faces with skewness > 4   (internal) or 20  (boundary) : 25
    faces with interpolation weights (0..1)  < 0.05        : 273
    faces with volume ratio of neighbour cells < 0.01      : 58
    faces with face twist < 0.05                           : 755
    faces on cells with determinant < 0.001                : 349
displacementMedialAxis : Iteration 1
Moving mesh using displacement scaling : min:0.75  max:1
Checking faces in error :
    non-orthogonality > 65  degrees                        : 29035
    faces with face pyramid volume < 1e-13                 : 7529
    faces with face-decomposition tet quality < 1e-15      : 6357
    faces with concavity > 80  degrees                     : 53
    faces with skewness > 4   (internal) or 20  (boundary) : 53
    faces with interpolation weights (0..1)  < 0.05        : 78
    faces with volume ratio of neighbour cells < 0.01      : 13
    faces with face twist < 0.05                           : 199
    faces on cells with determinant < 0.001                : 48
displacementMedialAxis : Iteration 2
Moving mesh using displacement scaling : min:0.5625  max:1
Checking faces in error :
    non-orthogonality > 65  degrees                        : 12393
    faces with face pyramid volume < 1e-13                 : 4474
    faces with face-decomposition tet quality < 1e-15      : 5630
    faces with concavity > 80  degrees                     : 34
    faces with skewness > 4   (internal) or 20  (boundary) : 3
    faces with interpolation weights (0..1)  < 0.05        : 52
    faces with volume ratio of neighbour cells < 0.01      : 52
    faces with face twist < 0.05                           : 145
    faces on cells with determinant < 0.001                : 17
displacementMedialAxis : Iteration 3
Moving mesh using displacement scaling : min:0.421875  max:1
Checking faces in error :
    non-orthogonality > 65  degrees                        : 5991
    faces with face pyramid volume < 1e-13                 : 2861
    faces with face-decomposition tet quality < 1e-15      : 3251
    faces with concavity > 80  degrees                     : 1
    faces with skewness > 4   (internal) or 20  (boundary) : 0
    faces with interpolation weights (0..1)  < 0.05        : 129
    faces with volume ratio of neighbour cells < 0.01      : 18
    faces with face twist < 0.05                           : 66
    faces on cells with determinant < 0.001                : 11
displacementMedialAxis : Iteration 4
Moving mesh using displacement scaling : min:0.316406  max:1
Checking faces in error :
    non-orthogonality > 65  degrees                        : 3324
    faces with face pyramid volume < 1e-13                 : 841
    faces with face-decomposition tet quality < 1e-15      : 1918
    faces with concavity > 80  degrees                     : 6
    faces with skewness > 4   (internal) or 20  (boundary) : 3
    faces with interpolation weights (0..1)  < 0.05        : 89
    faces with volume ratio of neighbour cells < 0.01      : 24
    faces with face twist < 0.05                           : 29
    faces on cells with determinant < 0.001                : 24
displacementMedialAxis : Iteration 5
displacementMedialAxis : Displacement scaling for error reduction set to 0.
Moving mesh using displacement scaling : min:0.237305  max:1
Checking faces in error :
    non-orthogonality > 65  degrees                        : 2261
    faces with face pyramid volume < 1e-13                 : 421
    faces with face-decomposition tet quality < 1e-15      : 1231
    faces with concavity > 80  degrees                     : 8
    faces with skewness > 4   (internal) or 20  (boundary) : 3
    faces with interpolation weights (0..1)  < 0.05        : 31
    faces with volume ratio of neighbour cells < 0.01      : 38
    faces with face twist < 0.05                           : 15
    faces on cells with determinant < 0.001                : 26
displacementMedialAxis : Iteration 6
Moving mesh using displacement scaling : min:0  max:1
Checking faces in error :
    non-orthogonality > 65  degrees                        : 20926
    faces with face pyramid volume < 1e-13                 : 1390
    faces with face-decomposition tet quality < 1e-15      : 2946
    faces with concavity > 80  degrees                     : 25
    faces with skewness > 4   (internal) or 20  (boundary) : 0
    faces with interpolation weights (0..1)  < 0.05        : 71
    faces with volume ratio of neighbour cells < 0.01      : 16
    faces with face twist < 0.05                           : 19
    faces on cells with determinant < 0.001                : 46
displacementMedialAxis : Iteration 7
Moving mesh using displacement scaling : min:0  max:1
Checking faces in error :
    non-orthogonality > 65  degrees                        : 37155
    faces with face pyramid volume < 1e-13                 : 1982
    faces with face-decomposition tet quality < 1e-15      : 5060
    faces with concavity > 80  degrees                     : 28
    faces with skewness > 4   (internal) or 20  (boundary) : 5
    faces with interpolation weights (0..1)  < 0.05        : 189
    faces with volume ratio of neighbour cells < 0.01      : 13
    faces with face twist < 0.05                           : 26
    faces on cells with determinant < 0.001                : 50
displacementMedialAxis : Iteration 8
Moving mesh using displacement scaling : min:0  max:1
Checking faces in error :
    non-orthogonality > 65  degrees                        : 47419
    faces with face pyramid volume < 1e-13                 : 3369
    faces with face-decomposition tet quality < 1e-15      : 5961
    faces with concavity > 80  degrees                     : 25
    faces with skewness > 4   (internal) or 20  (boundary) : 1
    faces with interpolation weights (0..1)  < 0.05        : 218
    faces with volume ratio of neighbour cells < 0.01      : 22
    faces with face twist < 0.05                           : 21
    faces on cells with determinant < 0.001                : 35
displacementMedialAxis : Iteration 9
Moving mesh using displacement scaling : min:0  max:1
Checking faces in error :
    non-orthogonality > 65  degrees                        : 42602
    faces with face pyramid volume < 1e-13                 : 3275
    faces with face-decomposition tet quality < 1e-15      : 5595
    faces with concavity > 80  degrees                     : 23
    faces with skewness > 4   (internal) or 20  (boundary) : 7
    faces with interpolation weights (0..1)  < 0.05        : 173
    faces with volume ratio of neighbour cells < 0.01      : 12
    faces with face twist < 0.05                           : 64
    faces on cells with determinant < 0.001                : 27
displacementMedialAxis : Finished moving mesh ...
truncateDisplacement : Unextruded 32 faces due to non-consecutive vertices being extruded.
truncateDisplacement : Unextruded 0 faces due to stringed edges with inconsistent extrusion.
truncateDisplacement : Unextruded 0 faces due to non-consecutive vertices being extruded.
truncateDisplacement : Unextruded 0 faces due to stringed edges with inconsistent extrusion.

Setting up information for layer truncation ...

Checking mesh with layer ...
Checking faces in error :
    non-orthogonality > 65  degrees                        : 44453
    faces with face pyramid volume < 1e-13                 : 2165
    faces with face-decomposition tet quality < 1e-15      : 5957
    faces with concavity > 80  degrees                     : 23
    faces with skewness > 4   (internal) or 20  (boundary) : 7
    faces with interpolation weights (0..1)  < 0.05        : 184
    faces with volume ratio of neighbour cells < 0.01      : 27
    faces with face twist < 0.05                           : 1
    faces on cells with determinant < 0.001                : 26
Detected 52843 illegal faces (concave, zero area or negative cell pyramid volume)
Extruding 1818792 out of 1910479 faces (95.2008%). Removed extrusion at 2013 faces.
Added 29656298 out of 34758742 cells (85.3204%).


Layer addition iteration 5
--------------------------

Determining displacement for added points according to pointNormal ...
Detected 0 points with point normal pointing through faces.
Reset displacement at 0 points to average of surrounding points.

displacementMedialAxis : Smoothing using Medial Axis ...
displacementMedialAxis : Reducing layer thickness at 290565 nodes where thickness to medial axis distance is large 
displacementMedialAxis : Removing isolated regions ...
displacementMedialAxis : Number of isolated points extrusion stopped : 598
displacementMedialAxis : Smoothing field ...
    Iteration 0   residual 6.13459e-05
displacementMedialAxis : Moving mesh ...
displacementMedialAxis : Iteration 0
Moving mesh using displacement scaling : min:1  max:1
Checking faces in error :
    non-orthogonality > 65  degrees                        : 80481
    faces with face pyramid volume < 1e-13                 : 14076
    faces with face-decomposition tet quality < 1e-15      : 13419
    faces with concavity > 80  degrees                     : 445
    faces with skewness > 4   (internal) or 20  (boundary) : 25
    faces with interpolation weights (0..1)  < 0.05        : 247
    faces with volume ratio of neighbour cells < 0.01      : 52
    faces with face twist < 0.05                           : 749
    faces on cells with determinant < 0.001                : 342
displacementMedialAxis : Iteration 1
Moving mesh using displacement scaling : min:0.75  max:1
Checking faces in error :
    non-orthogonality > 65  degrees                        : 29170
    faces with face pyramid volume < 1e-13                 : 7480
    faces with face-decomposition tet quality < 1e-15      : 5877
    faces with concavity > 80  degrees                     : 60
    faces with skewness > 4   (internal) or 20  (boundary) : 53
    faces with interpolation weights (0..1)  < 0.05        : 76
    faces with volume ratio of neighbour cells < 0.01      : 13
    faces with face twist < 0.05                           : 201
    faces on cells with determinant < 0.001                : 50
displacementMedialAxis : Iteration 2
Moving mesh using displacement scaling : min:0.5625  max:1
Checking faces in error :
    non-orthogonality > 65  degrees                        : 12250
    faces with face pyramid volume < 1e-13                 : 4451
    faces with face-decomposition tet quality < 1e-15      : 5496
    faces with concavity > 80  degrees                     : 29
    faces with skewness > 4   (internal) or 20  (boundary) : 2
    faces with interpolation weights (0..1)  < 0.05        : 46
    faces with volume ratio of neighbour cells < 0.01      : 31
    faces with face twist < 0.05                           : 141
    faces on cells with determinant < 0.001                : 5
displacementMedialAxis : Iteration 3
Moving mesh using displacement scaling : min:0.421875  max:1
Checking faces in error :
    non-orthogonality > 65  degrees                        : 5861
    faces with face pyramid volume < 1e-13                 : 2837
    faces with face-decomposition tet quality < 1e-15      : 3005
    faces with concavity > 80  degrees                     : 1
    faces with skewness > 4   (internal) or 20  (boundary) : 0
    faces with interpolation weights (0..1)  < 0.05        : 133
    faces with volume ratio of neighbour cells < 0.01      : 7
    faces with face twist < 0.05                           : 94
    faces on cells with determinant < 0.001                : 14
displacementMedialAxis : Iteration 4
Moving mesh using displacement scaling : min:0.316406  max:1
Checking faces in error :
    non-orthogonality > 65  degrees                        : 2787
    faces with face pyramid volume < 1e-13                 : 718
    faces with face-decomposition tet quality < 1e-15      : 1658
    faces with concavity > 80  degrees                     : 0
    faces with skewness > 4   (internal) or 20  (boundary) : 3
    faces with interpolation weights (0..1)  < 0.05        : 89
    faces with volume ratio of neighbour cells < 0.01      : 14
    faces with face twist < 0.05                           : 27
    faces on cells with determinant < 0.001                : 12
displacementMedialAxis : Iteration 5
displacementMedialAxis : Displacement scaling for error reduction set to 0.
Moving mesh using displacement scaling : min:0.237305  max:1
Checking faces in error :
    non-orthogonality > 65  degrees                        : 1994
    faces with face pyramid volume < 1e-13                 : 451
    faces with face-decomposition tet quality < 1e-15      : 1056
    faces with concavity > 80  degrees                     : 2
    faces with skewness > 4   (internal) or 20  (boundary) : 0
    faces with interpolation weights (0..1)  < 0.05        : 31
    faces with volume ratio of neighbour cells < 0.01      : 50
    faces with face twist < 0.05                           : 4
    faces on cells with determinant < 0.001                : 20
displacementMedialAxis : Iteration 6
Moving mesh using displacement scaling : min:0  max:1
Checking faces in error :
    non-orthogonality > 65  degrees                        : 16612
    faces with face pyramid volume < 1e-13                 : 1078
    faces with face-decomposition tet quality < 1e-15      : 2306
    faces with concavity > 80  degrees                     : 8
    faces with skewness > 4   (internal) or 20  (boundary) : 0
    faces with interpolation weights (0..1)  < 0.05        : 71
    faces with volume ratio of neighbour cells < 0.01      : 7
    faces with face twist < 0.05                           : 22
    faces on cells with determinant < 0.001                : 24
displacementMedialAxis : Iteration 7
Moving mesh using displacement scaling : min:0  max:1
Checking faces in error :
    non-orthogonality > 65  degrees                        : 32378
    faces with face pyramid volume < 1e-13                 : 1485
    faces with face-decomposition tet quality < 1e-15      : 4247
    faces with concavity > 80  degrees                     : 20
    faces with skewness > 4   (internal) or 20  (boundary) : 3
    faces with interpolation weights (0..1)  < 0.05        : 163
    faces with volume ratio of neighbour cells < 0.01      : 9
    faces with face twist < 0.05                           : 16
    faces on cells with determinant < 0.001                : 17
displacementMedialAxis : Iteration 8
Moving mesh using displacement scaling : min:0  max:1
Checking faces in error :
    non-orthogonality > 65  degrees                        : 43716
    faces with face pyramid volume < 1e-13                 : 3071
    faces with face-decomposition tet quality < 1e-15      : 5454
    faces with concavity > 80  degrees                     : 12
    faces with skewness > 4   (internal) or 20  (boundary) : 0
    faces with interpolation weights (0..1)  < 0.05        : 221
    faces with volume ratio of neighbour cells < 0.01      : 9
    faces with face twist < 0.05                           : 28
    faces on cells with determinant < 0.001                : 13
displacementMedialAxis : Iteration 9
Moving mesh using displacement scaling : min:0  max:1
Checking faces in error :
    non-orthogonality > 65  degrees                        : 38109
    faces with face pyramid volume < 1e-13                 : 3056
    faces with face-decomposition tet quality < 1e-15      : 4903
    faces with concavity > 80  degrees                     : 35
    faces with skewness > 4   (internal) or 20  (boundary) : 6
    faces with interpolation weights (0..1)  < 0.05        : 173
    faces with volume ratio of neighbour cells < 0.01      : 17
    faces with face twist < 0.05                           : 59
    faces on cells with determinant < 0.001                : 19
displacementMedialAxis : Finished moving mesh ...
truncateDisplacement : Unextruded 29 faces due to non-consecutive vertices being extruded.
truncateDisplacement : Unextruded 0 faces due to stringed edges with inconsistent extrusion.
truncateDisplacement : Unextruded 0 faces due to non-consecutive vertices being extruded.
truncateDisplacement : Unextruded 0 faces due to stringed edges with inconsistent extrusion.

Setting up information for layer truncation ...

Checking mesh with layer ...
Checking faces in error :
    non-orthogonality > 65  degrees                        : 39571
    faces with face pyramid volume < 1e-13                 : 2096
    faces with face-decomposition tet quality < 1e-15      : 5193
    faces with concavity > 80  degrees                     : 35
    faces with skewness > 4   (internal) or 20  (boundary) : 6
    faces with interpolation weights (0..1)  < 0.05        : 185
    faces with volume ratio of neighbour cells < 0.01      : 34
    faces with face twist < 0.05                           : 8
    faces on cells with determinant < 0.001                : 22
Detected 47150 illegal faces (concave, zero area or negative cell pyramid volume)
Extruding 1807619 out of 1910479 faces (94.616%). Removed extrusion at 1715 faces.
Added 29443600 out of 34758742 cells (84.7085%).


Layer addition iteration 6
--------------------------

Determining displacement for added points according to pointNormal ...
Detected 0 points with point normal pointing through faces.
Reset displacement at 0 points to average of surrounding points.

displacementMedialAxis : Smoothing using Medial Axis ...
displacementMedialAxis : Reducing layer thickness at 290542 nodes where thickness to medial axis distance is large 
displacementMedialAxis : Removing isolated regions ...
displacementMedialAxis : Number of isolated points extrusion stopped : 525
displacementMedialAxis : Smoothing field ...
    Iteration 0   residual 6.1868e-05
displacementMedialAxis : Moving mesh ...
displacementMedialAxis : Iteration 0
Moving mesh using displacement scaling : min:1  max:1
Checking faces in error :
    non-orthogonality > 65  degrees                        : 79964
    faces with face pyramid volume < 1e-13                 : 14072
    faces with face-decomposition tet quality < 1e-15      : 12666
    faces with concavity > 80  degrees                     : 445
    faces with skewness > 4   (internal) or 20  (boundary) : 25
    faces with interpolation weights (0..1)  < 0.05        : 241
    faces with volume ratio of neighbour cells < 0.01      : 52
    faces with face twist < 0.05                           : 748
    faces on cells with determinant < 0.001                : 341
displacementMedialAxis : Iteration 1
Moving mesh using displacement scaling : min:0.75  max:1
Checking faces in error :
    non-orthogonality > 65  degrees                        : 28509
    faces with face pyramid volume < 1e-13                 : 7479
    faces with face-decomposition tet quality < 1e-15      : 5592
    faces with concavity > 80  degrees                     : 55
    faces with skewness > 4   (internal) or 20  (boundary) : 53
    faces with interpolation weights (0..1)  < 0.05        : 76
    faces with volume ratio of neighbour cells < 0.01      : 17
    faces with face twist < 0.05                           : 204
    faces on cells with determinant < 0.001                : 47
displacementMedialAxis : Iteration 2
Moving mesh using displacement scaling : min:0.5625  max:1
Checking faces in error :
    non-orthogonality > 65  degrees                        : 11637
    faces with face pyramid volume < 1e-13                 : 4453
    faces with face-decomposition tet quality < 1e-15      : 5150
    faces with concavity > 80  degrees                     : 29
    faces with skewness > 4   (internal) or 20  (boundary) : 2
[...]
    faces with concavity > 80  degrees                     : 2
    faces with skewness > 4   (internal) or 20  (boundary) : 0
    faces with interpolation weights (0..1)  < 0.05        : 44
    faces with volume ratio of neighbour cells < 0.01      : 3
    faces with face twist < 0.05                           : 0
    faces on cells with determinant < 0.001                : 0
displacementMedialAxis : Finished moving mesh ...
truncateDisplacement : Unextruded 1 faces due to non-consecutive vertices being extruded.
truncateDisplacement : Unextruded 0 faces due to stringed edges with inconsistent extrusion.
truncateDisplacement : Unextruded 0 faces due to non-consecutive vertices being extruded.
truncateDisplacement : Unextruded 0 faces due to stringed edges with inconsistent extrusion.

Setting up information for layer truncation ...

Checking mesh with layer ...
Checking faces in error :
    non-orthogonality > 65  degrees                        : 8298
    faces with face pyramid volume < 1e-13                 : 481
    faces with face-decomposition tet quality < 1e-15      : 1074
    faces with concavity > 80  degrees                     : 2
    faces with skewness > 4   (internal) or 20  (boundary) : 0
    faces with interpolation weights (0..1)  < 0.05        : 44
    faces with volume ratio of neighbour cells < 0.01      : 6
    faces with face twist < 0.05                           : 0
    faces on cells with determinant < 0.001                : 0
Detected 9905 illegal faces (concave, zero area or negative cell pyramid volume)
Extruding 1746157 out of 1910479 faces (91.3989%). Removed extrusion at 321 faces.
Added 28174570 out of 34758742 cells (81.0575%).


Layer addition iteration 18
--------------------------

Determining displacement for added points according to pointNormal ...
Detected 0 points with point normal pointing through faces.
Reset displacement at 0 points to average of surrounding points.

displacementMedialAxis : Smoothing using Medial Axis ...
displacementMedialAxis : Reducing layer thickness at 290459 nodes where thickness to medial axis distance is large 
displacementMedialAxis : Removing isolated regions ...
displacementMedialAxis : Number of isolated points extrusion stopped : 65
displacementMedialAxis : Smoothing field ...
    Iteration 0   residual 6.62439e-05
displacementMedialAxis : Moving mesh ...
displacementMedialAxis : Iteration 0
Moving mesh using displacement scaling : min:1  max:1
Checking faces in error :
    non-orthogonality > 65  degrees                        : 86403
    faces with face pyramid volume < 1e-13                 : 14064
    faces with face-decomposition tet quality < 1e-15      : 12772
    faces with concavity > 80  degrees                     : 453
    faces with skewness > 4   (internal) or 20  (boundary) : 25
    faces with interpolation weights (0..1)  < 0.05        : 237
    faces with volume ratio of neighbour cells < 0.01      : 52
    faces with face twist < 0.05                           : 748
    faces on cells with determinant < 0.001                : 338
displacementMedialAxis : Iteration 1
Moving mesh using displacement scaling : min:0.75  max:1
Checking faces in error :
    non-orthogonality > 65  degrees                        : 29438
    faces with face pyramid volume < 1e-13                 : 7464
    faces with face-decomposition tet quality < 1e-15      : 5455
    faces with concavity > 80  degrees                     : 54
    faces with skewness > 4   (internal) or 20  (boundary) : 53
    faces with interpolation weights (0..1)  < 0.05        : 76
    faces with volume ratio of neighbour cells < 0.01      : 13
    faces with face twist < 0.05                           : 204
    faces on cells with determinant < 0.001                : 47
displacementMedialAxis : Iteration 2
Moving mesh using displacement scaling : min:0.5625  max:1
Checking faces in error :
    non-orthogonality > 65  degrees                        : 11540
    faces with face pyramid volume < 1e-13                 : 4478
    faces with face-decomposition tet quality < 1e-15      : 6011
    faces with concavity > 80  degrees                     : 31
    faces with skewness > 4   (internal) or 20  (boundary) : 2
    faces with interpolation weights (0..1)  < 0.05        : 33
    faces with volume ratio of neighbour cells < 0.01      : 15
    faces with face twist < 0.05                           : 149
    faces on cells with determinant < 0.001                : 4
displacementMedialAxis : Iteration 3
Moving mesh using displacement scaling : min:0.421875  max:1
Checking faces in error :
    non-orthogonality > 65  degrees                        : 4530
    faces with face pyramid volume < 1e-13                 : 2730
    faces with face-decomposition tet quality < 1e-15      : 2548
    faces with concavity > 80  degrees                     : 0
    faces with skewness > 4   (internal) or 20  (boundary) : 1
    faces with interpolation weights (0..1)  < 0.05        : 111
    faces with volume ratio of neighbour cells < 0.01      : 8
    faces with face twist < 0.05                           : 109
    faces on cells with determinant < 0.001                : 7
displacementMedialAxis : Iteration 4
Moving mesh using displacement scaling : min:0.316406  max:1
Checking faces in error :
    non-orthogonality > 65  degrees                        : 910
    faces with face pyramid volume < 1e-13                 : 454
    faces with face-decomposition tet quality < 1e-15      : 750
    faces with concavity > 80  degrees                     : 0
    faces with skewness > 4   (internal) or 20  (boundary) : 3
    faces with interpolation weights (0..1)  < 0.05        : 57
    faces with volume ratio of neighbour cells < 0.01      : 1
    faces with face twist < 0.05                           : 23
    faces on cells with determinant < 0.001                : 2
displacementMedialAxis : Iteration 5
displacementMedialAxis : Displacement scaling for error reduction set to 0.
Moving mesh using displacement scaling : min:0.237305  max:1
Checking faces in error :
    non-orthogonality > 65  degrees                        : 2
    faces with face pyramid volume < 1e-13                 : 0
    faces with face-decomposition tet quality < 1e-15      : 0
    faces with concavity > 80  degrees                     : 0
    faces with skewness > 4   (internal) or 20  (boundary) : 0
    faces with interpolation weights (0..1)  < 0.05        : 3
    faces with volume ratio of neighbour cells < 0.01      : 0
    faces with face twist < 0.05                           : 0
    faces on cells with determinant < 0.001                : 0
displacementMedialAxis : Iteration 6
Moving mesh using displacement scaling : min:0  max:1
Checking faces in error :
    non-orthogonality > 65  degrees                        : 303
    faces with face pyramid volume < 1e-13                 : 16
    faces with face-decomposition tet quality < 1e-15      : 44
    faces with concavity > 80  degrees                     : 0
    faces with skewness > 4   (internal) or 20  (boundary) : 0
    faces with interpolation weights (0..1)  < 0.05        : 2
    faces with volume ratio of neighbour cells < 0.01      : 1
    faces with face twist < 0.05                           : 0
    faces on cells with determinant < 0.001                : 0
displacementMedialAxis : Iteration 7
Moving mesh using displacement scaling : min:0  max:1
Checking faces in error :
    non-orthogonality > 65  degrees                        : 1127
    faces with face pyramid volume < 1e-13                 : 55
    faces with face-decomposition tet quality < 1e-15      : 156
    faces with concavity > 80  degrees                     : 0
    faces with skewness > 4   (internal) or 20  (boundary) : 0
    faces with interpolation weights (0..1)  < 0.05        : 5
    faces with volume ratio of neighbour cells < 0.01      : 5
    faces with face twist < 0.05                           : 0
    faces on cells with determinant < 0.001                : 0
displacementMedialAxis : Iteration 8
Moving mesh using displacement scaling : min:0  max:1
Checking faces in error :
    non-orthogonality > 65  degrees                        : 2079
    faces with face pyramid volume < 1e-13                 : 90
    faces with face-decomposition tet quality < 1e-15      : 301
    faces with concavity > 80  degrees                     : 0
    faces with skewness > 4   (internal) or 20  (boundary) : 0
    faces with interpolation weights (0..1)  < 0.05        : 11
    faces with volume ratio of neighbour cells < 0.01      : 1
    faces with face twist < 0.05                           : 0
    faces on cells with determinant < 0.001                : 0
displacementMedialAxis : Iteration 9
Moving mesh using displacement scaling : min:0  max:1
Checking faces in error :
    non-orthogonality > 65  degrees                        : 3277
    faces with face pyramid volume < 1e-13                 : 259
    faces with face-decomposition tet quality < 1e-15      : 397
    faces with concavity > 80  degrees                     : 0
    faces with skewness > 4   (internal) or 20  (boundary) : 0
    faces with interpolation weights (0..1)  < 0.05        : 15
    faces with volume ratio of neighbour cells < 0.01      : 0
    faces with face twist < 0.05                           : 0
    faces on cells with determinant < 0.001                : 0
displacementMedialAxis : Finished moving mesh ...
truncateDisplacement : Unextruded 1 faces due to non-consecutive vertices being extruded.
truncateDisplacement : Unextruded 0 faces due to stringed edges with inconsistent extrusion.
truncateDisplacement : Unextruded 0 faces due to non-consecutive vertices being extruded.
truncateDisplacement : Unextruded 0 faces due to stringed edges with inconsistent extrusion.

Setting up information for layer truncation ...

Checking mesh with layer ...
Checking faces in error :
    non-orthogonality > 65  degrees                        : 3362
    faces with face pyramid volume < 1e-13                 : 177
    faces with face-decomposition tet quality < 1e-15      : 398
    faces with concavity > 80  degrees                     : 0
    faces with skewness > 4   (internal) or 20  (boundary) : 0
    faces with interpolation weights (0..1)  < 0.05        : 15
    faces with volume ratio of neighbour cells < 0.01      : 0
    faces with face twist < 0.05                           : 0
    faces on cells with determinant < 0.001                : 0
Detected 3952 illegal faces (concave, zero area or negative cell pyramid volume)
Extruding 1745851 out of 1910479 faces (91.3829%). Removed extrusion at 111 faces.
Added 28167175 out of 34758742 cells (81.0362%).


Layer addition iteration 19
--------------------------

Determining displacement for added points according to pointNormal ...
Detected 0 points with point normal pointing through faces.
Reset displacement at 0 points to average of surrounding points.

displacementMedialAxis : Smoothing using Medial Axis ...
displacementMedialAxis : Reducing layer thickness at 290459 nodes where thickness to medial axis distance is large 
displacementMedialAxis : Removing isolated regions ...
displacementMedialAxis : Number of isolated points extrusion stopped : 27
displacementMedialAxis : Smoothing field ...
    Iteration 0   residual 6.63069e-05
displacementMedialAxis : Moving mesh ...
displacementMedialAxis : Iteration 0
Moving mesh using displacement scaling : min:1  max:1
Checking faces in error :
    non-orthogonality > 65  degrees                        : 86525
    faces with face pyramid volume < 1e-13                 : 14064
    faces with face-decomposition tet quality < 1e-15      : 12772
    faces with concavity > 80  degrees                     : 453
    faces with skewness > 4   (internal) or 20  (boundary) : 25
    faces with interpolation weights (0..1)  < 0.05        : 237
    faces with volume ratio of neighbour cells < 0.01      : 52
    faces with face twist < 0.05                           : 748
    faces on cells with determinant < 0.001                : 338
displacementMedialAxis : Iteration 1
Moving mesh using displacement scaling : min:0.75  max:1
Checking faces in error :
    non-orthogonality > 65  degrees                        : 29483
    faces with face pyramid volume < 1e-13                 : 7464
    faces with face-decomposition tet quality < 1e-15      : 5455
    faces with concavity > 80  degrees                     : 54
    faces with skewness > 4   (internal) or 20  (boundary) : 53
    faces with interpolation weights (0..1)  < 0.05        : 76
    faces with volume ratio of neighbour cells < 0.01      : 13
    faces with face twist < 0.05                           : 204
    faces on cells with determinant < 0.001                : 47
displacementMedialAxis : Iteration 2
Moving mesh using displacement scaling : min:0.5625  max:1
Checking faces in error :
    non-orthogonality > 65  degrees                        : 11544
    faces with face pyramid volume < 1e-13                 : 4478
    faces with face-decomposition tet quality < 1e-15      : 6029
    faces with concavity > 80  degrees                     : 31
    faces with skewness > 4   (internal) or 20  (boundary) : 2
    faces with interpolation weights (0..1)  < 0.05        : 33
    faces with volume ratio of neighbour cells < 0.01      : 15
    faces with face twist < 0.05                           : 149
    faces on cells with determinant < 0.001                : 4
displacementMedialAxis : Iteration 3
Moving mesh using displacement scaling : min:0.421875  max:1
Checking faces in error :
    non-orthogonality > 65  degrees                        : 4528
    faces with face pyramid volume < 1e-13                 : 2729
    faces with face-decomposition tet quality < 1e-15      : 2543
    faces with concavity > 80  degrees                     : 0
    faces with skewness > 4   (internal) or 20  (boundary) : 1
    faces with interpolation weights (0..1)  < 0.05        : 111
    faces with volume ratio of neighbour cells < 0.01      : 8
    faces with face twist < 0.05                           : 109
    faces on cells with determinant < 0.001                : 7
displacementMedialAxis : Iteration 4
Moving mesh using displacement scaling : min:0.316406  max:1
Checking faces in error :
    non-orthogonality > 65  degrees                        : 906
    faces with face pyramid volume < 1e-13                 : 454
    faces with face-decomposition tet quality < 1e-15      : 750
    faces with concavity > 80  degrees                     : 0
    faces with skewness > 4   (internal) or 20  (boundary) : 3
    faces with interpolation weights (0..1)  < 0.05        : 57
    faces with volume ratio of neighbour cells < 0.01      : 1
    faces with face twist < 0.05                           : 23
    faces on cells with determinant < 0.001                : 2
displacementMedialAxis : Iteration 5
displacementMedialAxis : Displacement scaling for error reduction set to 0.
Moving mesh using displacement scaling : min:0.237305  max:1
Checking faces in error :
    non-orthogonality > 65  degrees                        : 2
    faces with face pyramid volume < 1e-13                 : 0
    faces with face-decomposition tet quality < 1e-15      : 0
    faces with concavity > 80  degrees                     : 0
    faces with skewness > 4   (internal) or 20  (boundary) : 0
    faces with interpolation weights (0..1)  < 0.05        : 1
    faces with volume ratio of neighbour cells < 0.01      : 0
    faces with face twist < 0.05                           : 0
    faces on cells with determinant < 0.001                : 0
displacementMedialAxis : Iteration 6
Moving mesh using displacement scaling : min:0  max:1
Checking faces in error :
    non-orthogonality > 65  degrees                        : 162
    faces with face pyramid volume < 1e-13                 : 13
    faces with face-decomposition tet quality < 1e-15      : 34
    faces with concavity > 80  degrees                     : 1
    faces with skewness > 4   (internal) or 20  (boundary) : 0
    faces with interpolation weights (0..1)  < 0.05        : 2
    faces with volume ratio of neighbour cells < 0.01      : 0
    faces with face twist < 0.05                           : 0
    faces on cells with determinant < 0.001                : 0
displacementMedialAxis : Iteration 7
Moving mesh using displacement scaling : min:0  max:1
Checking faces in error :
    non-orthogonality > 65  degrees                        : 661
    faces with face pyramid volume < 1e-13                 : 30
    faces with face-decomposition tet quality < 1e-15      : 116
    faces with concavity > 80  degrees                     : 0
    faces with skewness > 4   (internal) or 20  (boundary) : 0
    faces with interpolation weights (0..1)  < 0.05        : 6
    faces with volume ratio of neighbour cells < 0.01      : 0
    faces with face twist < 0.05                           : 0
    faces on cells with determinant < 0.001                : 0
displacementMedialAxis : Iteration 8
Moving mesh using displacement scaling : min:0  max:1
Checking faces in error :
    non-orthogonality > 65  degrees                        : 1357
    faces with face pyramid volume < 1e-13                 : 47
    faces with face-decomposition tet quality < 1e-15      : 171
    faces with concavity > 80  degrees                     : 1
    faces with skewness > 4   (internal) or 20  (boundary) : 0
    faces with interpolation weights (0..1)  < 0.05        : 2
    faces with volume ratio of neighbour cells < 0.01      : 0
    faces with face twist < 0.05                           : 0
    faces on cells with determinant < 0.001                : 0
displacementMedialAxis : Iteration 9
Moving mesh using displacement scaling : min:0  max:1
Checking faces in error :
    non-orthogonality > 65  degrees                        : 2220
    faces with face pyramid volume < 1e-13                 : 153
    faces with face-decomposition tet quality < 1e-15      : 298
    faces with concavity > 80  degrees                     : 1
    faces with skewness > 4   (internal) or 20  (boundary) : 0
    faces with interpolation weights (0..1)  < 0.05        : 10
    faces with volume ratio of neighbour cells < 0.01      : 1
    faces with face twist < 0.05                           : 0
    faces on cells with determinant < 0.001                : 0
displacementMedialAxis : Finished moving mesh ...
truncateDisplacement : Unextruded 0 faces due to non-consecutive vertices being extruded.
truncateDisplacement : Unextruded 0 faces due to stringed edges with inconsistent extrusion.

Setting up information for layer truncation ...

Checking mesh with layer ...
Checking faces in error :
    non-orthogonality > 65  degrees                        : 2252
    faces with face pyramid volume < 1e-13                 : 122
    faces with face-decomposition tet quality < 1e-15      : 299
    faces with concavity > 80  degrees                     : 1
    faces with skewness > 4   (internal) or 20  (boundary) : 0
    faces with interpolation weights (0..1)  < 0.05        : 10
    faces with volume ratio of neighbour cells < 0.01      : 1
    faces with face twist < 0.05                           : 0
    faces on cells with determinant < 0.001                : 0
Detected 2685 illegal faces (concave, zero area or negative cell pyramid volume)
Extruding 1745716 out of 1910479 faces (91.3758%). Removed extrusion at 59 faces.
Added 28163434 out of 34758742 cells (81.0255%).

--------------------------------------------------------------------------
MPI_ABORT was invoked on rank 1 in communicator MPI COMMUNICATOR 3 SPLIT FROM 0
with errorcode 1.

NOTE: invoking MPI_ABORT causes Open MPI to kill all MPI processes.
You may or may not see output from other processes, depending on
exactly when Open MPI kills them.
--------------------------------------------------------------------------
