/*---------------------------------------------------------------------------*\
  =========                 |
  \\      /  F ield         | OpenFOAM: The Open Source CFD Toolbox
   \\    /   O peration     | Website:  https://openfoam.org
    \\  /    A nd           | Version:  7
     \\/     M anipulation  |
\*---------------------------------------------------------------------------*/
Build  : 7
Exec   : checkMesh
Date   : Aug 10 2022
Time   : 16:34:49
Host   : "cluster62"
PID    : 106657
I/O    : uncollated
Case   : /share/storage/finzeo/Mallas/GTS_Tunay/gts_converted19
nProcs : 1
sigFpe : Enabling floating point exception trapping (FOAM_SIGFPE).
fileModificationChecking : Monitoring run-time modified files using timeStampMaster (fileModificationSkew 10)
allowSystemOperations : Allowing user-supplied system call operations

// * * * * * * * * * * * * * * * * * * * * * * * * * * * * * * * * * * * * * //
Create time

Create polyMesh for time = 0

Time = 0

Mesh stats
    points:           129690
    faces:            370778
    internal faces:   353062
    cells:            120640
    faces per cell:   6
    boundary patches: 5
    point zones:      0
    face zones:       0
    cell zones:       0

Overall number of cells of each type:
    hexahedra:     120640
    prisms:        0
    wedges:        0
    pyramids:      0
    tet wedges:    0
    tetrahedra:    0
    polyhedra:     0

Checking topology...
    Boundary definition OK.
    Cell to face addressing OK.
    Point usage OK.
    Upper triangular ordering OK.
    Face vertices OK.
    Number of regions: 1 (OK).

Checking patch topology for multiply connected surfaces...
    Patch               Faces    Points   Surface topology                  
    frontAndBack        7540     7860     ok (non-closed singly connected)  
    inletBB             928      990      ok (non-closed singly connected)  
    outletBB            928      990      ok (non-closed singly connected)  
    lowerWallBB         4160     4323     ok (non-closed singly connected)  
    upperWallBB         4160     4323     ok (non-closed singly connected)  

Checking geometry...
    Overall domain bounding box (-38.8 -19 -1.504) (118 19 33.096)
    Mesh has 3 geometric (non-empty/wedge) directions (1 1 1)
    Mesh has 3 solution (non-empty) directions (1 1 1)
    Boundary openness (-7.39654e-18 5.06901e-16 -4.00043e-16) OK.
    Max cell openness = 3.13443e-16 OK.
    Max aspect ratio = 1.01571 OK.
    Minimum face area = 1.41681. Maximum face area = 1.43907.  Face area magnitudes OK.
    Min volume = 1.70889. Max volume = 1.70889.  Total volume = 206161.  Cell volumes OK.
    Mesh non-orthogonality Max: 8.53774e-07 average: 0
    Non-orthogonality check OK.
    Face pyramids OK.
    Max skewness = 1.12573e-13 OK.
    Coupled point location match (average 0) OK.

Mesh OK.

--> FOAM Warning : 
    From function virtual Foam::polyMesh::readUpdateState Foam::polyMesh::readUpdate()
    in file meshes/polyMesh/polyMeshIO.C at line 209
    unexpected consequences.  Proceed with care.
Time = 1

Mesh stats
    points:           4362777
    faces:            12592617
    internal faces:   12363672
    cells:            4117996
    faces per cell:   6.0603
    boundary patches: 12
    point zones:      0
    face zones:       0
    cell zones:       0

Overall number of cells of each type:
    hexahedra:     4025090
    prisms:        0
    wedges:        0
    pyramids:      0
    tet wedges:    0
    tetrahedra:    0
    polyhedra:     92906
    Breakdown of polyhedra by number of faces:
        faces   number of cells
            6   17423
            8   6340
            9   60037
           10   53
           11   6
           12   8732
           14   1
           15   296
           18   18

Checking topology...
    Boundary definition OK.
    Cell to face addressing OK.
    Point usage OK.
    Upper triangular ordering OK.
    Face vertices OK.
    Number of regions: 1 (OK).

Checking patch topology for multiply connected surfaces...
                   Patch    Faces   Points                  Surface topology
            frontAndBack        0        0                        ok (empty)
                 inletBB        0        0                        ok (empty)
                outletBB        0        0                        ok (empty)
             lowerWallBB        0        0                        ok (empty)
             upperWallBB        0        0                        ok (empty)
                gtsModel    48947    49875      ok (closed singly connected)
                   inlet     9616    10403  ok (non-closed singly connected)
                  outlet     8032     8865  ok (non-closed singly connected)
                 lateral    57464    61906  ok (non-closed singly connected)
                     top    27822    30090  ok (non-closed singly connected)
            bottomNoSlip    49352    49937  ok (non-closed singly connected)
              bottomSlip    27712    30320  ok (non-closed singly connected)

Checking geometry...
    Overall domain bounding box (-37.8954 -18.1094 -0.609172) (117.095 18.1094 32.4994)
    Mesh has 3 geometric (non-empty/wedge) directions (1 1 1)
    Mesh has 3 solution (non-empty) directions (1 1 1)
    Boundary openness (-4.06592e-15 -1.44515e-15 4.09532e-13) OK.
    Max cell openness = 3.49111e-16 OK.
    Max aspect ratio = 1.01571 OK.
    Minimum face area = 0.0013836. Maximum face area = 1.43907.  Face area magnitudes OK.
    Min volume = 5.21512e-05. Max volume = 1.70889.  Total volume = 178225.  Cell volumes OK.
    Mesh non-orthogonality Max: 25.465 average: 4.08309
    Non-orthogonality check OK.
    Face pyramids OK.
    Max skewness = 1 OK.
    Coupled point location match (average 0) OK.

Mesh OK.

Time = 2

Mesh stats
    points:           4347135
    faces:            12576444
    internal faces:   12363672
    cells:            4117996
    faces per cell:   6.05637
    boundary patches: 12
    point zones:      0
    face zones:       0
    cell zones:       0

Overall number of cells of each type:
    hexahedra:     4015744
    prisms:        8483
    wedges:        0
    pyramids:      0
    tet wedges:    52
    tetrahedra:    0
    polyhedra:     93717
    Breakdown of polyhedra by number of faces:
        faces   number of cells
            4   326
            5   494
            6   17416
            7   6334
            8   55
            9   60037
           10   2
           11   6
           12   8732
           14   1
           15   296
           18   18

Checking topology...
    Boundary definition OK.
    Cell to face addressing OK.
    Point usage OK.
    Upper triangular ordering OK.
    Face vertices OK.
    Number of regions: 1 (OK).

Checking patch topology for multiply connected surfaces...
                   Patch    Faces   Points                  Surface topology
            frontAndBack        0        0                        ok (empty)
                 inletBB        0        0                        ok (empty)
                outletBB        0        0                        ok (empty)
             lowerWallBB        0        0                        ok (empty)
             upperWallBB        0        0                        ok (empty)
                gtsModel    44252    45683      ok (closed singly connected)
                   inlet     8762     9553  ok (non-closed singly connected)
                  outlet     7178     8015  ok (non-closed singly connected)
                 lateral    52620    57070  ok (non-closed singly connected)
                     top    25974    28246  ok (non-closed singly connected)
            bottomNoSlip    48738    49327  ok (non-closed singly connected)
              bottomSlip    25248    27860  ok (non-closed singly connected)

Checking geometry...
    Overall domain bounding box (-37.8 -18 -0.504) (117 18 32.4)
    Mesh has 3 geometric (non-empty/wedge) directions (1 1 1)
    Mesh has 3 solution (non-empty) directions (1 1 1)
    Boundary openness (-2.99096e-16 -4.40832e-16 1.46841e-13) OK.
    Max cell openness = 3.50832e-16 OK.
    Max aspect ratio = 4.5488 OK.
    Minimum face area = 0.000145213. Maximum face area = 1.64184.  Face area magnitudes OK.
    Min volume = 1.03778e-05. Max volume = 1.98926.  Total volume = 183256.  Cell volumes OK.
    Mesh non-orthogonality Max: 48.1618 average: 4.25487
    Non-orthogonality check OK.
    Face pyramids OK.
    Max skewness = 2.25001 OK.
    Coupled point location match (average 0) OK.

Mesh OK.

--> FOAM Warning : 
    From function virtual Foam::polyMesh::readUpdateState Foam::polyMesh::readUpdate()
    in file meshes/polyMesh/polyMeshIO.C at line 209
    unexpected consequences.  Proceed with care.
Time = 3

Mesh stats
    points:           4739991
    faces:            13729658
    internal faces:   13516990
    cells:            4498107
    faces per cell:   6.05736
    boundary patches: 7
    point zones:      0
    face zones:       0
    cell zones:       0

Overall number of cells of each type:
    hexahedra:     4371656
    prisms:        8593
    wedges:        0
    pyramids:      0
    tet wedges:    56
    tetrahedra:    0
    polyhedra:     117802
    Breakdown of polyhedra by number of faces:
        faces   number of cells
            4   463
            5   432
            6   18578
            7   26491
            8   2320
            9   60310
           10   107
           11   39
           12   8737
           13   7
           14   3
           15   296
           16   1
           18   18

Checking topology...
    Boundary definition OK.
    Cell to face addressing OK.
    Point usage OK.
    Upper triangular ordering OK.
    Face vertices OK.
    Number of regions: 1 (OK).

Checking patch topology for multiply connected surfaces...
                   Patch    Faces   Points                  Surface topology
                gtsModel    44148    45539      ok (closed singly connected)
                   inlet     8762     9553  ok (non-closed singly connected)
                  outlet     7178     8015  ok (non-closed singly connected)
                 lateral    52620    57070  ok (non-closed singly connected)
                     top    25974    28246  ok (non-closed singly connected)
            bottomNoSlip    48738    49327  ok (non-closed singly connected)
              bottomSlip    25248    27860  ok (non-closed singly connected)

Checking geometry...
    Overall domain bounding box (-37.8 -18 -0.504) (117 18 32.4)
    Mesh has 3 geometric (non-empty/wedge) directions (1 1 1)
    Mesh has 3 solution (non-empty) directions (1 1 1)
    Boundary openness (-1.58203e-16 2.43295e-16 8.11424e-14) OK.
    Max cell openness = 6.47075e-16 OK.
    Max aspect ratio = 31.7721 OK.
    Minimum face area = 1.96818e-05. Maximum face area = 1.64184.  Face area magnitudes OK.
    Min volume = 1.49777e-06. Max volume = 1.98932.  Total volume = 183256.  Cell volumes OK.
    Mesh non-orthogonality Max: 64.4523 average: 4.92905
    Non-orthogonality check OK.
    Face pyramids OK.
    Max skewness = 2.50728 OK.
    Coupled point location match (average 0) OK.

Mesh OK.

End

