/*---------------------------------------------------------------------------*\
  =========                 |
  \\      /  F ield         | OpenFOAM: The Open Source CFD Toolbox
   \\    /   O peration     | Website:  https://openfoam.org
    \\  /    A nd           | Version:  7
     \\/     M anipulation  |
\*---------------------------------------------------------------------------*/
Build  : 7
Exec   : snappyHexMesh
Date   : Aug 11 2022
Time   : 18:11:05
Host   : "compute-0-4.local"
PID    : 11715
I/O    : uncollated
Case   : /share/storage/finzeo/Mallas/GTS_Tunay/gts_converted20
nProcs : 1
sigFpe : Enabling floating point exception trapping (FOAM_SIGFPE).
fileModificationChecking : Monitoring run-time modified files using timeStampMaster (fileModificationSkew 10)
allowSystemOperations : Allowing user-supplied system call operations

// * * * * * * * * * * * * * * * * * * * * * * * * * * * * * * * * * * * * * //
Create time

Create mesh for time = 0



--> FOAM FATAL ERROR: 
Cannot find file "points" in directory "polyMesh" in times "0" down to constant

    From function virtual Foam::IOobject Foam::fileOperation::findInstance(const Foam::IOobject&, Foam::scalar, const Foam::word&) const
    in file global/fileOperations/fileOperation/fileOperation.C at line 871.

FOAM exiting

