/*---------------------------------------------------------------------------*\
  =========                 |
  \\      /  F ield         | OpenFOAM: The Open Source CFD Toolbox
   \\    /   O peration     | Website:  https://openfoam.org
    \\  /    A nd           | Version:  7
     \\/     M anipulation  |
\*---------------------------------------------------------------------------*/
Build  : 7
Exec   : checkMesh
Date   : Nov 14 2022
Time   : 16:36:24
Host   : "compute-0-15.local"
PID    : 2258
I/O    : uncollated
Case   : /share/storage/finzeo/Mallas/GTSTunay/gtsconverted29
nProcs : 1
sigFpe : Enabling floating point exception trapping (FOAM_SIGFPE).
fileModificationChecking : Monitoring run-time modified files using timeStampMaster (fileModificationSkew 10)
allowSystemOperations : Allowing user-supplied system call operations

// * * * * * * * * * * * * * * * * * * * * * * * * * * * * * * * * * * * * * //
Create time

Create polyMesh for time = 0

Time = 0

Mesh stats
    points:           48273446
    faces:            138724996
    internal faces:   136204273
    cells:            45240670
    faces per cell:   6.07704
    boundary patches: 6
    point zones:      0
    face zones:       0
    cell zones:       0

Overall number of cells of each type:
    hexahedra:     43399283
    prisms:        205668
    wedges:        0
    pyramids:      0
    tet wedges:    298
    tetrahedra:    0
    polyhedra:     1635421
    Breakdown of polyhedra by number of faces:
        faces   number of cells
            4   21278
            5   13988
            6   144754
            7   447258
            8   99369
            9   793832
           10   7
           11   9
           12   104716
           15   10108
           18   102

Checking topology...
    Boundary definition OK.
    Cell to face addressing OK.
    Point usage OK.
    Upper triangular ordering OK.
    Face vertices OK.
    Number of regions: 1 (OK).

Checking patch topology for multiply connected surfaces...
                   Patch    Faces   Points                  Surface topology
            frontAndBack    30444    31080  ok (non-closed singly connected)
                   inlet     3540     3660  ok (non-closed singly connected)
                  outlet     3540     3660  ok (non-closed singly connected)
               lowerWall    62640    63511  ok (non-closed singly connected)
               upperWall    15480    15799  ok (non-closed singly connected)
                gtsModel  2405079  2434126      ok (closed singly connected)

Checking geometry...
    Overall domain bounding box (-37.8 -18 -0.504) (117 18 32.4)
    Mesh has 3 geometric (non-empty/wedge) directions (1 1 1)
    Mesh has 3 solution (non-empty) directions (1 1 1)
    Boundary openness (-8.61399e-16 -8.44534e-17 1.50179e-14) OK.
    Max cell openness = 3.70326e-15 OK.
    Max aspect ratio = 161.44 OK.
    Minimum face area = 2.82771e-08. Maximum face area = 0.452665.  Face area magnitudes OK.
    Min volume = 2.19856e-10. Max volume = 0.25078.  Total volume = 183256.  Cell volumes OK.
    Mesh non-orthogonality Max: 64.1277 average: 4.93017
    Non-orthogonality check OK.
    Face pyramids OK.
    Max skewness = 2.81221 OK.
    Coupled point location match (average 0) OK.

Mesh OK.

End

