/*---------------------------------------------------------------------------*\
  =========                 |
  \\      /  F ield         | OpenFOAM: The Open Source CFD Toolbox
   \\    /   O peration     | Website:  https://openfoam.org
    \\  /    A nd           | Version:  7
     \\/     M anipulation  |
\*---------------------------------------------------------------------------*/
Build  : 7
Exec   : snappyHexMesh -parallel -overwrite -dict ../system/snappyHexMeshDict
Date   : Mar 01 2023
Time   : 15:14:31
Host   : "compute-0-29.local"
PID    : 167795
I/O    : uncollated
Case   : /share/storage/finzeo/Mallas/GTS-Storms/testmalla1
nProcs : 40
Slaves : 
39
(
"compute-0-29.local.167796"
"compute-0-29.local.167797"
"compute-0-29.local.167798"
"compute-0-29.local.167799"
"compute-0-29.local.167800"
"compute-0-29.local.167801"
"compute-0-29.local.167802"
"compute-0-29.local.167803"
"compute-0-29.local.167804"
"compute-0-29.local.167805"
"compute-0-29.local.167806"
"compute-0-29.local.167807"
"compute-0-29.local.167808"
"compute-0-29.local.167809"
"compute-0-29.local.167810"
"compute-0-29.local.167811"
"compute-0-29.local.167812"
"compute-0-29.local.167813"
"compute-0-29.local.167814"
"compute-0-30.local.172517"
"compute-0-30.local.172518"
"compute-0-30.local.172519"
"compute-0-30.local.172520"
"compute-0-30.local.172521"
"compute-0-30.local.172522"
"compute-0-30.local.172523"
"compute-0-30.local.172524"
"compute-0-30.local.172525"
"compute-0-30.local.172526"
"compute-0-30.local.172527"
"compute-0-30.local.172528"
"compute-0-30.local.172529"
"compute-0-30.local.172530"
"compute-0-30.local.172531"
"compute-0-30.local.172532"
"compute-0-30.local.172533"
"compute-0-30.local.172534"
"compute-0-30.local.172535"
"compute-0-30.local.172536"
)

Pstream initialized with:
    floatTransfer      : 0
    nProcsSimpleSum    : 0
    commsType          : nonBlocking
    polling iterations : 0
sigFpe : Enabling floating point exception trapping (FOAM_SIGFPE).
fileModificationChecking : Monitoring run-time modified files using timeStampMaster (fileModificationSkew 10)
allowSystemOperations : Allowing user-supplied system call operations

// * * * * * * * * * * * * * * * * * * * * * * * * * * * * * * * * * * * * * //
Create time

Create mesh for time = 0

Read mesh in = 0.16 s

Overall mesh bounding box  : (-7.41043 -1.6002 -0.1524) (4.47677 1.6002 2.1336)
Relative tolerance         : 1e-06
Absolute matching distance : 1.25209e-05

Reading refinement surfaces.
Read refinement surfaces in = 1.8 s

Reading refinement shells.
Refinement level according to distance to gtsModel
    level 5 for all cells within 0.015 metre.
Refinement level 1 for all cells inside refinementBox1
Refinement level 2 for all cells inside refinementBox2
Refinement level 3 for all cells inside refinementBox3
Read refinement shells in = 0 s

Setting refinement level of surface to be consistent with shells.
Checked shell refinement in = 0 s

Reading features.
Read edgeMesh GTS-Storms.eMesh
    points      : 79122
    edges       : 127233
    boundingBox : (-2.47648 -0.161925 -0.0762) (0 0.161925 0.4508)

Refinement level according to distance to "GTS-Storms.eMesh" (79122 points, 127233 edges).
    level 6 for all cells within 0 metre.
Read features in = 0.4 s


Determining initial surface intersections
-----------------------------------------

Edge intersection testing:
    Number of edges             : 602172
    Number of edges to retest   : 602172
    Number of intersected edges : 23872
Calculated surface intersections in = 1.21 s

Initial mesh : cells:196560  faces:602172  points:209281
Cells per refinement level:
    0	196560

Adding patches for surface regions
----------------------------------

Patch Type                Region                        
----- ----                ------                        
gtsModel:

5     wall                gtsModel                      

inlet:

1     patch               inlet                         

outlet:

2     patch               outlet                        

left:

6     patch               left                          

right:

7     patch               right                         

top:

8     patch               top                           

floor:

[2]  Foam::decompositionMethod::New 
[2] {
[2]     numberOfSubdomains 40;
[2]     method          scotch;
[2]     simpleCoeffs
[2]     {
[2]         n               ( 4 1 1 );
[2]         delta           0.001;
[2]     }
[2]     hierarchicalCoeffs
[2]     {
[2]         n               ( 3 2 1 );
[2]         delta           0.001;
[2]         order           xyz;
[2]     }
[2]     manualCoeffs
[2]     {
[2]         dataFile        "cellDecomposition";
[2]     }
[2]     scotchCoeffs
[2]     {
[2]         processorWeights ( 1 1 1 1 1 1 1 1 1 1 1 1 1 1 1 1 1 1 1 1 1 1 1 1 1 1 1 1 1 1 1 1 1 1 1 1 1 1 1 1 );
[2]     }
[2] }
[2] 
[2] Selecting decompositionMethod scotch
[10]  Foam::decompositionMethod::New 
[10] {
[10]     numberOfSubdomains 40;
[10]     method          scotch;
[10]     simpleCoeffs
[10]     {
[10]         n               ( 4 1 1 );
[10]         delta           0.001;
[10]     }
[10]     hierarchicalCoeffs
[10]     {
[10]         n               ( 3 2 1 );
[10]         delta           0.001;
[10]         order           xyz;
[10]     }
[10]     manualCoeffs
[10]     {
[10]         dataFile        "cellDecomposition";
[10]     }
[10]     scotchCoeffs
[10]     {
[10]         processorWeights ( 1 1 1 1 1 1 1 1 1 1 1 1 1 1 1 1 1 1 1 1 1 1 1 1 1 1 1 1 1 1 1 1 1 1 1 1 1 1 1 1 );
[10]     }
[10] }
[10] 
[10] Selecting decompositionMethod scotch
[11]  Foam::decompositionMethod::New 
[11] {
[11]     numberOfSubdomains 40;
[11]     method          scotch;
[11]     simpleCoeffs
[11]     {
[11]         n               ( 4 1 1 );
[11]         delta           0.001;
[11]     }
[11]     hierarchicalCoeffs
[11]     {
[11]         n               ( 3 2 1 );
[11]         delta           0.001;
[11]         order           xyz;
[11]     }
[11]     manualCoeffs
[11]     {
[11]         dataFile        "cellDecomposition";
[11]     }
[11]     scotchCoeffs
[11]     {
[11]         processorWeights ( 1 1 1 1 1 1 1 1 1 1 1 1 1 1 1 1 1 1 1 1 1 1 1 1 1 1 1 1 1 1 1 1 1 1 1 1 1 1 1 1 );
[11]     }
[11] }
[11] 
[11] Selecting decompositionMethod scotch
[14]  Foam::decompositionMethod::New 
[14] {
[14]     numberOfSubdomains 40;
[14]     method          scotch;
[14]     simpleCoeffs
[14]     {
[14]         n               ( 4 1 1 );
[14]         delta           0.001;
[14]     }
[14]     hierarchicalCoeffs
[14]     {
[14]         n               ( 3 2 1 );
[14]         delta           0.001;
[14]         order           xyz;
[14]     }
[14]     manualCoeffs
[14]     {
[14]         dataFile        "cellDecomposition";
[14]     }
[14]     scotchCoeffs
[14]     {
[14]         processorWeights ( 1 1 1 1 1 1 1 1 1 1 1 1 1 1 1 1 1 1 1 1 1 1 1 1 1 1 1 1 1 1 1 1 1 1 1 1 1 1 1 1 );
[14]     }
[14] }
[14] 
[14] Selecting decompositionMethod scotch
[15]  Foam::decompositionMethod::New 
[15] {
[15]     numberOfSubdomains 40;
[15]     method          scotch;
[15]     simpleCoeffs
[15]     {
[15]         n               ( 4 1 1 );
[15]         delta           0.001;
[15]     }
[15]     hierarchicalCoeffs
[15]     {
[15]         n               ( 3 2 1 );
[15]         delta           0.001;
[15]         order           xyz;
[15]     }
[15]     manualCoeffs
[15]     {
[15]         dataFile        "cellDecomposition";
[15]     }
[15]     scotchCoeffs
[15]     {
[15]         processorWeights ( 1 1 1 1 1 1 1 1 1 1 1 1 1 1 1 1 1 1 1 1 1 1 1 1 1 1 1 1 1 1 1 1 1 1 1 1 1 1 1 1 );
[15]     }
[15] }
[15] 
[15] Selecting decompositionMethod scotch
[19]  Foam::decompositionMethod::New 
[19] {
[19]     numberOfSubdomains 40;
[19]     method          scotch;
[19]     simpleCoeffs
[19]     {
[19]         n               ( 4 1 1 );
[19]         delta           0.001;
[19]     }
[19]     hierarchicalCoeffs
[19]     {
[19]         n               ( 3 2 1 );
[19]         delta           0.001;
[19]         order           xyz;
[19]     }
[19]     manualCoeffs
[19]     {
[19]         dataFile        "cellDecomposition";
[19]     }
[19]     scotchCoeffs
[19]     {
[19]         processorWeights ( 1 1 1 1 1 1 1 1 1 1 1 1 1 1 1 1 1 1 1 1 1 1 1 1 1 1 1 1 1 1 1 1 1 1 1 1 1 1 1 1 );
[19]     }
[19] }
[19] 
[19] Selecting decompositionMethod scotch
[3]  Foam::decompositionMethod::New 
[3] {
[3]     numberOfSubdomains 40;
[3]     method          scotch;
[3]     simpleCoeffs
[3]     {
[3]         n               ( 4 1 1 );
[3]         delta           0.001;
[3]     }
[3]     hierarchicalCoeffs
[3]     {
[3]         n               ( 3 2 1 );
[3]         delta           0.001;
[3]         order           xyz;
[3]     }
[3]     manualCoeffs
[3]     {
[3]         dataFile        "cellDecomposition";
[3]     }
[3]     scotchCoeffs
[3]     {
[3]         processorWeights ( 1 1 1 1 1 1 1 1 1 1 1 1 1 1 1 1 1 1 1 1 1 1 1 1 1 1 1 1 1 1 1 1 1 1 1 1 1 1 1 1 );
[3]     }
[3] }
[3] 
[3] Selecting decompositionMethod scotch
[12]  Foam::decompositionMethod::New 
[12] {
[12]     numberOfSubdomains 40;
[12]     method          scotch;
[12]     simpleCoeffs
[12]     {
[12]         n               ( 4 1 1 );
[12]         delta           0.001;
[12]     }
[12]     hierarchicalCoeffs
[12]     {
[12]         n               ( 3 2 1 );
[12]         delta           0.001;
[12]         order           xyz;
[12]     }
[12]     manualCoeffs
[12]     {
[12]         dataFile        "cellDecomposition";
[12]     }
[12]     scotchCoeffs
[12]     {
[12]         processorWeights ( 1 1 1 1 1 1 1 1 1 1 1 1 1 1 1 1 1 1 1 1 1 1 1 1 1 1 1 1 1 1 1 1 1 1 1 1 1 1 1 1 );
[12]     }
[12] }
[12] 
[12] Selecting decompositionMethod scotch
[13]  Foam::decompositionMethod::New 
[13] {
[13]     numberOfSubdomains 40;
[13]     method          scotch;
[13]     simpleCoeffs
[13]     {
[13]         n               ( 4 1 1 );
[13]         delta           0.001;
[13]     }
[13]     hierarchicalCoeffs
[13]     {
[13]         n               ( 3 2 1 );
[13]         delta           0.001;
[13]         order           xyz;
[13]     }
[13]     manualCoeffs
[13]     {
[13]         dataFile        "cellDecomposition";
[13]     }
[13]     scotchCoeffs
[13]     {
[13]         processorWeights ( 1 1 1 1 1 1 1 1 1 1 1 1 1 1 1 1 1 1 1 1 1 1 1 1 1 1 1 1 1 1 1 1 1 1 1 1 1 1 1 1 );
[13]     }
[13] }
[13] 
[13] Selecting decompositionMethod scotch
[18]  Foam::decompositionMethod::New 
[18] {
[18]     numberOfSubdomains 40;
[18]     method          scotch;
[18]     simpleCoeffs
[18]     {
[18]         n               ( 4 1 1 );
[18]         delta           0.001;
[18]     }
[18]     hierarchicalCoeffs
[18]     {
[18]         n               ( 3 2 1 );
[18]         delta           0.001;
[18]         order           xyz;
[18]     }
[18]     manualCoeffs
[18]     {
[18]         dataFile        "cellDecomposition";
[18]     }
[18]     scotchCoeffs
[18]     {
[1]  Foam::decompositionMethod::New 
[1] {
[1]     numberOfSubdomains 40;
[1]     method          scotch;
[1]     simpleCoeffs
[1]     {
[1]         n               ( 4 1 1 );
[1]         delta           0.001;
[1]     }
[1]     hierarchicalCoeffs
[1]     {
[1]         n               ( 3 2 1 );
[1]         delta           0.001;
[1]         order           xyz;
[1]     }
[1]     manualCoeffs
[1]     {
[1]         dataFile        "cellDecomposition";
[1]     }
[1]     scotchCoeffs
[1]     {
[1]         processorWeights ( 1 1 1 1 1 1 1 1 1 1 1 1 1 1 1 1 1 1 1 1 1 1 1 1 1 1 1 1 1 1 1 1 1 1 1 1 1 1 1 1 );
[1]     }
[1] }
[1] 
[1] Selecting decompositionMethod scotch
[16]  Foam::decompositionMethod::New 
[16] {
[16]     numberOfSubdomains 40;
[16]     method          scotch;
[16]     simpleCoeffs
[16]     {
[16]         n               ( 4 1 1 );
[16]         delta           0.001;
[16]     }
[16]     hierarchicalCoeffs
[16]     {
[16]         n               ( 3 2 1 );
[16]         delta           0.001;
[16]         order           xyz;
[16]     }
[16]     manualCoeffs
[16]     {
[16]         dataFile        "cellDecomposition";
[16]     }
[16]     scotchCoeffs
[16]     {
[16]         processorWeights ( 1 1 1 1 1 1 1 1 1 1 1 1 1 1 1 1 1 1 1 1 1 1 1 1 1 1 1 1 1 1 1 1 1 1 1 1 1 1 1 1 );
[16]     }
[16] }
[16] 
[16] Selecting decompositionMethod scotch
[18]         processorWeights ( 1 1 1 1 1 1 1 1 1 1 1 1 1 1 1 1 1 1 1 1 1 1 1 1 1 1 1 1 1 1 1 1 1 1 1 1 1 1 1 1 );
[18]     }
[18] }
[18] 
[18] Selecting decompositionMethod scotch
9     wall                floor                         

Added patches in = 0.04 s

[0]  Foam::decompositionMethod::New 
[0] {
[0]     numberOfSubdomains 40;
[0]     method          scotch;
[0]     simpleCoeffs
[0]     {
[0]         n               ( 4 1 1 );
[0]         delta           0.001;
[0]     }
[0]     hierarchicalCoeffs
[0]     {
[0]         n               ( 3 2 1 );
[0]         delta           0.001;
[0]         order           xyz;
[0]     }
[0]     manualCoeffs
[0]     {
[0]         dataFile        "cellDecomposition";
[0]     }
[0]     scotchCoeffs
[0]     {
[0]         processorWeights ( 1 1 1 1 1 1 1 1 1 1 1 1 1 1 1 1 1 1 1 1 1 1 1 1 1 1 1 1 1 1 1 1 1 1 1 1 1 1 1 1 );
[0]     }
[0] }
[0] 
[0] Selecting decompositionMethod scotch
[24]  Foam::decompositionMethod::New 
[24] {
[24]     numberOfSubdomains 40;
[24]     method          scotch;
[24]     simpleCoeffs
[24]     {
[24]         n               ( 4 1 1 );
[24]         delta           0.001;
[24]     }
[24]     hierarchicalCoeffs
[24]     {
[24]         n               ( 3 2 1 );
[24]         delta           0.001;
[24]         order           xyz;
[24]     }
[24]     manualCoeffs
[24]     {
[24]         dataFile        "cellDecomposition";
[24]     }
[24]     scotchCoeffs
[24]     {
[24]         processorWeights ( 1 1 1 1 1 1 1 1 1 1 1 1 1 1 1 1 1 1 1 1 1 1 1 1 1 1 1 1 1 1 1 1 1 1 1 1 1 1 1 1 );
[24]     }
[24] }
[24] 
[24] Selecting decompositionMethod scotch
[5]  Foam::decompositionMethod::New 
[5] {
[5]     numberOfSubdomains 40;
[5]     method          scotch;
[5]     simpleCoeffs
[5]     {
[5]         n               ( 4 1 1 );
[5]         delta           0.001;
[5]     }
[5]     hierarchicalCoeffs
[5]     {
[5]         n               ( 3 2 1 );
[5]         delta           0.001;
[5]         order           xyz;
[5]     }
[5]     manualCoeffs
[5]     {
[5]         dataFile        "cellDecomposition";
[5]     }
[5]     scotchCoeffs
[5]     {
[5]         processorWeights ( 1 1 1 1 1 1 1 1 1 1 1 1 1 1 1 1 1 1 1 1 1 1 1 1 1 1 1 1 1 1 1 1 1 1 1 1 1 1 1 1 );
[5]     }
[5] }
[5] 
[5] Selecting decompositionMethod scotch
Layer thickness specified as final layer and expansion ratio.

Refinement phase
----------------

[6]  Foam::decompositionMethod::New 
[6] {
[6]     numberOfSubdomains 40;
[6]     method          scotch;
[6]     simpleCoeffs
[6]     {
[6]         n               ( 4 1 1 );
[6]         delta           0.001;
[6]     }
[6]     hierarchicalCoeffs
[6]     {
[6]         n               ( 3 2 1 );
[6]         delta           0.001;
[6]         order           xyz;
[6]     }
[6]     manualCoeffs
[6]     {
[6]         dataFile        "cellDecomposition";
[6]     }
[6]     scotchCoeffs
[6]     {
[6]         processorWeights ( 1 1 1 1 1 1 1 1 1 1 1 1 1 1 1 1 1 1 1 1 1 1 1 1 1 1 1 1 1 1 1 1 1 1 1 1 1 1 1 1 );
[6]     }
[6] }
[6] 
[6] Selecting decompositionMethod scotch
[26]  Foam::decompositionMethod::New 
[26] {
[26]     numberOfSubdomains 40;
[26]     method          scotch;
[26]     simpleCoeffs
[26]     {
[26]         n               ( 4 1 1 );
[26]         delta           0.001;
[26]     }
[26]     hierarchicalCoeffs
[26]     {
[26]         n               ( 3 2 1 );
[26]         delta           0.001;
[26]         order           xyz;
[26]     }
[26]     manualCoeffs
[26]     {
[26]         dataFile        "cellDecomposition";
[26]     }
[26]     scotchCoeffs
[26]     {
[26]         processorWeights ( 1 1 1 1 1 1 1 1 1 1 1 1 1 1 1 1 1 1 1 1 1 1 1 1 1 1 1 1 1 1 1 1 1 1 1 1 1 1 1 1 );
[26]     }
[26] }
[26] 
[26] Selecting decompositionMethod scotch
[7]  Foam::decompositionMethod::New 
[7] {
[7]     numberOfSubdomains 40;
[7]     method          scotch;
[7]     simpleCoeffs
[7]     {
[7]         n               ( 4 1 1 );
[7]         delta           0.001;
[7]     }
[7]     hierarchicalCoeffs
[7]     {
[30]  Foam::decompositionMethod::New 
[30] {
[30]     numberOfSubdomains 40;
[30]     method          scotch;
[30]     simpleCoeffs
[30]     {
[30]         n               ( 4 1 1 );
[30]         delta           0.001;
[30]     }
[30]     hierarchicalCoeffs
[30]     {
[30]         n               ( 3 2 1 );
[30]         delta           0.001;
[30]         order           xyz;
[30]     }
[30]     manualCoeffs
[30]     {
[30]         dataFile        "cellDecomposition";
[30]     }
[30]     scotchCoeffs
[30]     {
[30]         processorWeights ( 1 1 1 1 1 1 1 1 1 1 1 1 1 1 1 1 1 1 1 1 1 1 1 1 1 1 1 1 1 1 1 1 1 1 1 1 1 1 1 1 );
[30]     }
[30] }
[30] 
[30] Selecting decompositionMethod scotch
[4]  Foam::decompositionMethod::New 
[4] {
[4]     numberOfSubdomains 40;
[4]     method          scotch;
[4]     simpleCoeffs
[4]     {
[4]         n               ( 4 1 1 );
[4]         delta           0.001;
[4]     }
[4]     hierarchicalCoeffs
[4]     {
[4]         n               ( 3 2 1 );
[4]         delta           0.001;
[4]         order           xyz;
[4]     }
[4]     manualCoeffs
[4]     {
[4]         dataFile        "cellDecomposition";
[4]     }
[4]     scotchCoeffs
[4]     {
[4]         processorWeights ( 1 1 1 1 1 1 1 1 1 1 1 1 1 1 1 1 1 1 1 1 1 1 1 1 1 1 1 1 1 1 1 1 1 1 1 1 1 1 1 1 );
[4]     }
[4] }
[4] 
[4] Selecting decompositionMethod scotch
[7]         n               ( 3 2 1 );
[7]         delta           0.001;
[7]         order           xyz;
[7]     }
[7]     manualCoeffs
[7]     {
[7]         dataFile        "cellDecomposition";
[7]     }
[7]     scotchCoeffs
[7]     {
[7]         processorWeights ( 1 1 1 1 1 1 1 1 1 1 1 1 1 1 1 1 1 1 1 1 1 1 1 1 1 1 1 1 1 1 1 1 1 1 1 1 1 1 1 1 );
[7]     }
[7] }
[7] 
[7] Selecting decompositionMethod scotch
[31]  Foam::decompositionMethod::New 
[31] {
[31]     numberOfSubdomains 40;
[31]     method          scotch;
[31]     simpleCoeffs
[31]     {
[31]         n               ( 4 1 1 );
[31]         delta           0.001;
[31]     }
[31]     hierarchicalCoeffs
[31]     {
[31]         n               ( 3 2 1 );
[31]         delta           0.001;
[31]         order           xyz;
[31]     }
[31]     manualCoeffs
[31]     {
[31]         dataFile        "cellDecomposition";
[31]     }
[31]     scotchCoeffs
[31]     {
[31]         processorWeights ( 1 1 1 1 1 1 1 1 1 1 1 1 1 1 1 1 1 1 1 1 1 1 1 1 1 1 1 1 1 1 1 1 1 1 1 1 1 1 1 1 );
[31]     }
[31] }
[31] 
[31] Selecting decompositionMethod scotch
[34]  Foam::decompositionMethod::New 
[34] {
[34]     numberOfSubdomains 40;
[34]     method          scotch;
[34]     simpleCoeffs
[34]     {
[34]         n               ( 4 1 1 );
[34]         delta           0.001;
[34]     }
[34]     hierarchicalCoeffs
[34]     {
[34]         n               ( 3 2 1 );
[34]         delta           0.001;
[34]         order           xyz;
[34]     }
[34]     manualCoeffs
[34]     {
[34]         dataFile        "cellDecomposition";
[34]     }
[34]     scotchCoeffs
[34]     {
[34]         processorWeights ( 1 1 1 1 1 1 1 1 1 1 1 1 1 1 1 1 1 1 1 1 1 1 1 1 1 1 1 1 1 1 1 1 1 1 1 1 1 1 1 1 );
[34]     }
[34] }
[34] 
[34] Selecting decompositionMethod scotch
[21]  Foam::decompositionMethod::New 
[21] {
[21]     numberOfSubdomains 40;
[21]     method          scotch;
[21]     simpleCoeffs
[21]     {
[21]         n               ( 4 1 1 );
[21]         delta           0.001;
[21]     }
[21]     hierarchicalCoeffs
[21]     {
[21]         n               ( 3 2 1 );
[21]         delta           0.001;
[21]         order           xyz;
[21]     }
[21]     manualCoeffs
[21]     {
[21]         dataFile        "cellDecomposition";
[21]     }
[21]     scotchCoeffs
[21]     {
[21]         processorWeights ( 1 1 1 1 1 1 1 1 1 1 1 1 1 1 1 1 1 1 1 1 1 1 1 1 1 1 1 1 1 1 1 1 1 1 1 1 1 1 1 1 );
[21]     }
[21] }
[21] 
[21] Selecting decompositionMethod scotch
[23]  Foam::decompositionMethod::New 
[23] {
[23]     numberOfSubdomains 40;
[23]     method          scotch;
[23]     simpleCoeffs
[23]     {
[23]         n               ( 4 1 1 );
[23]         delta           0.001;
[23]     }
[23]     hierarchicalCoeffs
[23]     {
[23]         n               ( 3 2 1 );
[23]         delta           0.001;
[23]         order           xyz;
[23]     }
[23]     manualCoeffs
[23]     {
[23]         dataFile        "cellDecomposition";
[23]     }
[23]     scotchCoeffs
[23]     {
[23]         processorWeights ( 1 1 1 1 1 1 1 1 1 1 1 1 1 1 1 1 1 1 1 1 1 1 1 1 1 1 1 1 1 1 1 1 1 1 1 1 1 1 1 1 );
[23]     }
[23] }
[23] 
[23] Selecting decompositionMethod scotch
[25]  Foam::decompositionMethod::New 
[25] {
[25]     numberOfSubdomains 40;
[25]     method          scotch;
[25]     simpleCoeffs
[25]     {
[25]         n               ( 4 1 1 );
[25]         delta           0.001;
[25]     }
[25]     hierarchicalCoeffs
[25]     {
[25]         n               ( 3 2 1 );
[25]         delta           0.001;
[25]         order           xyz;
[25]     }
[25]     manualCoeffs
[25]     {
[25]         dataFile        "cellDecomposition";
[25]     }
[25]     scotchCoeffs
[25]     {
[25]         processorWeights ( 1 1 1 1 1 1 1 1 1 1 1 1 1 1 1 1 1 1 1 1 1 1 1 1 1 1 1 1 1 1 1 1 1 1 1 1 1 1 1 1 );
[25]     }
[25] }
[25] 
[25] Selecting decompositionMethod scotch
[32]  Foam::decompositionMethod::New 
[32] {
[32]     numberOfSubdomains 40;
[32]     method          scotch;
[32]     simpleCoeffs
[32]     {
[32]         n               ( 4 1 1 );
[32]         delta           0.001;
[32]     }
[32]     hierarchicalCoeffs
[32]     {
[32]         n               ( 3 2 1 );
[32]         delta           0.001;
[32]         order           xyz;
[32]     }
[32]     manualCoeffs
[32]     {
[32]         dataFile        "cellDecomposition";
[32]     }
[32]     scotchCoeffs
[32]     {
[32]         processorWeights ( 1 1 1 1 1 1 1 1 1 1 1 1 1 1 1 1 1 1 1 1 1 1 1 1 1 1 1 1 1 1 1 1 1 1 1 1 1 1 1 1 );
[32]     }
[32] }
[32] 
[32] Selecting decompositionMethod scotch
[8]  Foam::decompositionMethod::New 
[8] {
[8]     numberOfSubdomains 40;
[8]     method          scotch;
[8]     simpleCoeffs
[8]     {
[8]         n               ( 4 1 1 );
[8]         delta           0.001;
[8]     }
[8]     hierarchicalCoeffs
[8]     {
[8]         n               ( 3 2 1 );
[8]         delta           0.001;
[8]         order           xyz;
[8]     }
[8]     manualCoeffs
[8]     {
[8]         dataFile        "cellDecomposition";
[8]     }
[8]     scotchCoeffs
[8]     {
[8]         processorWeights ( 1 1 1 1 1 1 1 1 1 1 1 1 1 1 1 1 1 1 1 1 1 1 1 1 1 1 1 1 1 1 1 1 1 1 1 1 1 1 1 1 );
[8]     }
[8] }
[8] 
[8] Selecting decompositionMethod scotch
[33]  Foam::decompositionMethod::New 
[33] {
[33]     numberOfSubdomains 40;
[33]     method          scotch;
[33]     simpleCoeffs
[33]     {
[33]         n               ( 4 1 1 );
[33]         delta           0.001;
[33]     }
[33]     hierarchicalCoeffs
[33]     {
[33]         n               ( 3 2 1 );
[33]         delta           0.001;
[33]         order           xyz;
[33]     }
[33]     manualCoeffs
[33]     {
[33]         dataFile        "cellDecomposition";
[33]     }
[33]     scotchCoeffs
[33]     {
[33]         processorWeights ( 1 1 1 1 1 1 1 1 1 1 1 1 1 1 1 1 1 1 1 1 1 1 1 1 1 1 1 1 1 1 1 1 1 1 1 1 1 1 1 1 );
[33]     }
[33] }
[33] 
[33] Selecting decompositionMethod scotch
[9]  Foam::decompositionMethod::New 
[9] {
[9]     numberOfSubdomains 40;
[9]     method          scotch;
[9]     simpleCoeffs
[9]     {
[9]         n               ( 4 1 1 );
[9]         delta           0.001;
[9]     }
[9]     hierarchicalCoeffs
[9]     {
[9]         n               ( 3 2 1 );
[9]         delta           0.001;
[9]         order           xyz;
[9]     }
[9]     manualCoeffs
[9]     {
[9]         dataFile        "cellDecomposition";
[9]     }
[9]     scotchCoeffs
[9]     {
[9]         processorWeights ( 1 1 1 1 1 1 1 1 1 1 1 1 1 1 1 1 1 1 1 1 1 1 1 1 1 1 1 1 1 1 1 1 1 1 1 1 1 1 1 1 );
[9]     }
[9] }
[9] 
[9] Selecting decompositionMethod scotch
[36]  Foam::decompositionMethod::New 
[36] {
[36]     numberOfSubdomains 40;
[36]     method          scotch;
[36]     simpleCoeffs
[36]     {
[36]         n               ( 4 1 1 );
[36]         delta           0.001;
[36]     }
[36]     hierarchicalCoeffs
[36]     {
[36]         n               ( 3 2 1 );
[36]         delta           0.001;
[36]         order           xyz;
[36]     }
[36]     manualCoeffs
[36]     {
[36]         dataFile        "cellDecomposition";
[36]     }
[36]     scotchCoeffs
[36]     {
[36]         processorWeights ( 1 1 1 1 1 1 1 1 1 1 1 1 1 1 1 1 1 1 1 1 1 1 1 1 1 1 1 1 1 1 1 1 1 1 1 1 1 1 1 1 );
[36]     }
[36] }
[36] 
[36] Selecting decompositionMethod scotch
[38]  Foam::decompositionMethod::New 
[38] {
[38]     numberOfSubdomains 40;
[38]     method          scotch;
[38]     simpleCoeffs
[38]     {
[38]         n               ( 4 1 1 );
[38]         delta           0.001;
[38]     }
[38]     hierarchicalCoeffs
[38]     {
[38]         n               ( 3 2 1 );
[38]         delta           0.001;
[38]         order           xyz;
[38]     }
[38]     manualCoeffs
[38]     {
[38]         dataFile        "cellDecomposition";
[38]     }
[38]     scotchCoeffs
[38]     {
[38]         processorWeights ( 1 1 1 1 1 1 1 1 1 1 1 1 1 1 1 1 1 1 1 1 1 1 1 1 1 1 1 1 1 1 1 1 1 1 1 1 1 1 1 1 );
[38]     }
[38] }
[38] 
[38] Selecting decompositionMethod scotch
[29]  Foam::decompositionMethod::New 
[29] {
[29]     numberOfSubdomains 40;
[29]     method          scotch;
[29]     simpleCoeffs
[29]     {
[29]         n               ( 4 1 1 );
[29]         delta           0.001;
[29]     }
[29]     hierarchicalCoeffs
[29]     {
[29]         n               ( 3 2 1 );
[29]         delta           0.001;
[29]         order           xyz;
[29]     }
[29]     manualCoeffs
[29]     {
[29]         dataFile        "cellDecomposition";
[29]     }
[29]     scotchCoeffs
[29]     {
[29]         processorWeights ( 1 1 1 1 1 1 1 1 1 1 1 1 1 1 1 1 1 1 1 1 1 1 1 1 1 1 1 1 1 1 1 1 1 1 1 1 1 1 1 1 );
[29]     }
[29] }
[29] 
[29] Selecting decompositionMethod scotch
[22]  Foam::decompositionMethod::New 
[22] {
[22]     numberOfSubdomains 40;
[22]     method          scotch;
[22]     simpleCoeffs
[22]     {
[22]         n               ( 4 1 1 );
[22]         delta           0.001;
[22]     }
[22]     hierarchicalCoeffs
[22]     {
[22]         n               ( 3 2 1 );
[22]         delta           0.001;
[22]         order           xyz;
[22]     }
[22]     manualCoeffs
[22]     {
[22]         dataFile        "cellDecomposition";
[22]     }
[22]     scotchCoeffs
[22]     {
[22]         processorWeights ( 1 1 1 1 1 1 1 1 1 1 1 1 1 1 1 1 1 1 1 1 1 1 1 1 1 1 1 1 1 1 1 1 1 1 1 1 1 1 1 1 );
[22]     }
[22] }
[22] 
[22] Selecting decompositionMethod scotch
[39]  Foam::decompositionMethod::New 
[39] {
[39]     numberOfSubdomains 40;
[39]     method          scotch;
[39]     simpleCoeffs
[39]     {
[39]         n               ( 4 1 1 );
[39]         delta           0.001;
[39]     }
[39]     hierarchicalCoeffs
[39]     {
[39]         n               ( 3 2 1 );
[39]         delta           0.001;
[39]         order           xyz;
[39]     }
[39]     manualCoeffs
[39]     {
[39]         dataFile        "cellDecomposition";
[39]     }
[39]     scotchCoeffs
[39]     {
[39]         processorWeights ( 1 1 1 1 1 1 1 1 1 1 1 1 1 1 1 1 1 1 1 1 1 1 1 1 1 1 1 1 1 1 1 1 1 1 1 1 1 1 1 1 );
[39]     }
[39] }
[39] 
[39] Selecting decompositionMethod scotch
[27]  Foam::decompositionMethod::New 
[27] {
[27]     numberOfSubdomains 40;
[27]     method          scotch;
[27]     simpleCoeffs
[27]     {
[27]         n               ( 4 1 1 );
[27]         delta           0.001;
[27]     }
[27]     hierarchicalCoeffs
[27]     {
[27]         n               ( 3 2 1 );
[27]         delta           0.001;
[27]         order           xyz;
[27]     }
[27]     manualCoeffs
[27]     {
[27]         dataFile        "cellDecomposition";
[27]     }
[27]     scotchCoeffs
[27]     {
[27]         processorWeights ( 1 1 1 1 1 1 1 1 1 1 1 1 1 1 1 1 1 1 1 1 1 1 1 1 1 1 1 1 1 1 1 1 1 1 1 1 1 1 1 1 );
[27]     }
[27] }
[27] 
[27] Selecting decompositionMethod scotch
[28]  Foam::decompositionMethod::New 
[28] {
[28]     numberOfSubdomains 40;
[28]     method          scotch;
[28]     simpleCoeffs
[28]     {
[28]         n               ( 4 1 1 );
[28]         delta           0.001;
[28]     }
[28]     hierarchicalCoeffs
[28]     {
[28]         n               ( 3 2 1 );
[28]         delta           0.001;
[28]         order           xyz;
[28]     }
[28]     manualCoeffs
[28]     {
[28]         dataFile        "cellDecomposition";
[28]     }
[28]     scotchCoeffs
[28]     {
[28]         processorWeights ( 1 1 1 1 1 1 1 1 1 1 1 1 1 1 1 1 1 1 1 1 1 1 1 1 1 1 1 1 1 1 1 1 1 1 1 1 1 1 1 1 );
[28]     }
[28] }
[28] 
[28] Selecting decompositionMethod scotch
[17]  Foam::decompositionMethod::New 
[17] {
[17]     numberOfSubdomains 40;
[17]     method          scotch;
[17]     simpleCoeffs
[17]     {
[17]         n               ( 4 1 1 );
[17]         delta           0.001;
[17]     }
[17]     hierarchicalCoeffs
[17]     {
[17]         n               ( 3 2 1 );
[17]         delta           0.001;
[17]         order           xyz;
[17]     }
[17]     manualCoeffs
[17]     {
[17]         dataFile        "cellDecomposition";
[17]     }
[17]     scotchCoeffs
[17]     {
[17]         processorWeights ( 1 1 1 1 1 1 1 1 1 1 1 1 1 1 1 1 1 1 1 1 1 1 1 1 1 1 1 1 1 1 1 1 1 1 1 1 1 1 1 1 );
[17]     }
[17] }
[17] 
[17] Selecting decompositionMethod scotch
[20]  Foam::decompositionMethod::New 
[20] {
[20]     numberOfSubdomains 40;
[20]     method          scotch;
[20]     simpleCoeffs
[20]     {
[20]         n               ( 4 1 1 );
[20]         delta           0.001;
[20]     }
[20]     hierarchicalCoeffs
[20]     {
[20]         n               ( 3 2 1 );
[20]         delta           0.001;
[20]         order           xyz;
[20]     }
[20]     manualCoeffs
[20]     {
[20]         dataFile        "cellDecomposition";
[20]     }
[20]     scotchCoeffs
[20]     {
[20]         processorWeights ( 1 1 1 1 1 1 1 1 1 1 1 1 1 1 1 1 1 1 1 1 1 1 1 1 1 1 1 1 1 1 1 1 1 1 1 1 1 1 1 1 );
[20]     }
[20] }
[20] 
[20] Selecting decompositionMethod scotch
[35]  Foam::decompositionMethod::New 
[35] {
[35]     numberOfSubdomains 40;
[35]     method          scotch;
[35]     simpleCoeffs
[35]     {
[35]         n               ( 4 1 1 );
[35]         delta           0.001;
[35]     }
[35]     hierarchicalCoeffs
[35]     {
[35]         n               ( 3 2 1 );
[35]         delta           0.001;
[35]         order           xyz;
[35]     }
[35]     manualCoeffs
[35]     {
[35]         dataFile        "cellDecomposition";
[35]     }
[35]     scotchCoeffs
[35]     {
[35]         processorWeights ( 1 1 1 1 1 1 1 1 1 1 1 1 1 1 1 1 1 1 1 1 1 1 1 1 1 1 1 1 1 1 1 1 1 1 1 1 1 1 1 1 );
[35]     }
[35] }
[35] 
[35] Selecting decompositionMethod scotch
[37]  Foam::decompositionMethod::New 
[37] {
[37]     numberOfSubdomains 40;
[37]     method          scotch;
[37]     simpleCoeffs
[37]     {
[37]         n               ( 4 1 1 );
[37]         delta           0.001;
[37]     }
[37]     hierarchicalCoeffs
[37]     {
[37]         n               ( 3 2 1 );
[37]         delta           0.001;
[37]         order           xyz;
[37]     }
[37]     manualCoeffs
[37]     {
[37]         dataFile        "cellDecomposition";
[37]     }
[37]     scotchCoeffs
[37]     {
[37]         processorWeights ( 1 1 1 1 1 1 1 1 1 1 1 1 1 1 1 1 1 1 1 1 1 1 1 1 1 1 1 1 1 1 1 1 1 1 1 1 1 1 1 1 );
[37]     }
[37] }
[37] 
[37] Selecting decompositionMethod scotch
Found point (2.0001 0.0001 0.5002) in cell 2727 on processor 22

Feature refinement iteration 0
------------------------------

Marked for refinement due to explicit features             : 249 cells.
Determined cells to refine in = 2.39 s
Selected for feature refinement : 249 cells (out of 196560)
Edge intersection testing:
    Number of edges             : 608664
    Number of edges to retest   : 10449
    Number of intersected edges : 24601
Refined mesh in = 0.09 s
After refinement feature refinement iteration 0 : cells:198303  faces:608664  points:212455
Cells per refinement level:
    0	196311
    1	1992
Balanced mesh in = 1.43 s
After balancing feature refinement iteration 0 : cells:198303  faces:608664  points:212455
Cells per refinement level:
    0	196311
    1	1992

Feature refinement iteration 1
------------------------------

Marked for refinement due to explicit features             : 544 cells.
Determined cells to refine in = 2.72 s
Selected for feature refinement : 838 cells (out of 198303)
Edge intersection testing:
    Number of edges             : 629385
    Number of edges to retest   : 31020
    Number of intersected edges : 27403
Refined mesh in = 0.11 s
After refinement feature refinement iteration 1 : cells:204169  faces:629385  points:221723
Cells per refinement level:
    0	195993
    1	4016
    2	4160
Balanced mesh in = 1.41 s
After balancing feature refinement iteration 1 : cells:204169  faces:629385  points:221723
Cells per refinement level:
    0	195993
    1	4016
    2	4160

Feature refinement iteration 2
------------------------------

Marked for refinement due to explicit features             : 1313 cells.
Determined cells to refine in = 3.2 s
Selected for feature refinement : 2074 cells (out of 204169)
Edge intersection testing:
    Number of edges             : 680382
    Number of edges to retest   : 75091
    Number of intersected edges : 34142
Refined mesh in = 0.17 s
After refinement feature refinement iteration 2 : cells:218687  faces:680382  points:244284
Cells per refinement level:
    0	195851
    1	4471
    2	8357
    3	10008
Balanced mesh in = 1.58 s
After balancing feature refinement iteration 2 : cells:218687  faces:680382  points:244284
Cells per refinement level:
    0	195851
    1	4471
    2	8357
    3	10008

Feature refinement iteration 3
------------------------------

Marked for refinement due to explicit features             : 3898 cells.
Determined cells to refine in = 2.99 s
Selected for feature refinement : 6266 cells (out of 218687)
Edge intersection testing:
    Number of edges             : 832260
    Number of edges to retest   : 216716
    Number of intersected edges : 46526
Refined mesh in = 0.32 s
After refinement feature refinement iteration 3 : cells:262549  faces:832260  points:309640
Cells per refinement level:
    0	195675
    1	5268
    2	11575
    3	19559
    4	30472
Balanced mesh in = 1.77 s
After balancing feature refinement iteration 3 : cells:262549  faces:832260  points:309640
Cells per refinement level:
    0	195675
    1	5268
    2	11575
    3	19559
    4	30472

Feature refinement iteration 4
------------------------------

Marked for refinement due to explicit features             : 12592 cells.
Determined cells to refine in = 4.26 s
Selected for feature refinement : 18211 cells (out of 262549)
Edge intersection testing:
    Number of edges             : 1269069
    Number of edges to retest   : 609800
    Number of intersected edges : 96085
Refined mesh in = 0.52 s
After refinement feature refinement iteration 4 : cells:390026  faces:1269069  points:493606
Cells per refinement level:
    0	195522
    1	6061
    2	13646
    3	26470
    4	51167
    5	97160
Balanced mesh in = 2.36 s
After balancing feature refinement iteration 4 : cells:390026  faces:1269069  points:493606
Cells per refinement level:
    0	195522
    1	6061
    2	13646
    3	26470
    4	51167
    5	97160

Feature refinement iteration 5
------------------------------

Marked for refinement due to explicit features             : 43055 cells.
Determined cells to refine in = 3.39 s
Selected for feature refinement : 58458 cells (out of 390026)
Edge intersection testing:
    Number of edges             : 2672322
    Number of edges to retest   : 1925677
    Number of intersected edges : 247051
Refined mesh in = 1.07 s
After refinement feature refinement iteration 5 : cells:799232  faces:2672322  points:1083884
Cells per refinement level:
    0	195426
    1	6568
    2	14899
    3	30143
    4	63060
    5	152368
    6	336768
Balanced mesh in = 4.12 s
After balancing feature refinement iteration 5 : cells:799232  faces:2672322  points:1083884
Cells per refinement level:
    0	195426
    1	6568
    2	14899
    3	30143
    4	63060
    5	152368
    6	336768

Feature refinement iteration 6
------------------------------

Marked for refinement due to explicit features             : 1808 cells.
Determined cells to refine in = 4.41 s
Selected for feature refinement : 4252 cells (out of 799232)
Edge intersection testing:
    Number of edges             : 2777691
    Number of edges to retest   : 164804
    Number of intersected edges : 254506
Refined mesh in = 0.32 s
After refinement feature refinement iteration 6 : cells:828996  faces:2777691  points:1131490
Cells per refinement level:
    0	195406
    1	6688
    2	14902
    3	32020
    4	66598
    5	164758
    6	348624
Balanced mesh in = 4.16 s
After balancing feature refinement iteration 6 : cells:828996  faces:2777691  points:1131490
Cells per refinement level:
    0	195406
    1	6688
    2	14902
    3	32020
    4	66598
    5	164758
    6	348624

Feature refinement iteration 7
------------------------------

Marked for refinement due to explicit features             : 1750 cells.
Determined cells to refine in = 4.81 s
Selected for feature refinement : 3190 cells (out of 828996)
Edge intersection testing:
    Number of edges             : 2853753
    Number of edges to retest   : 147205
    Number of intersected edges : 256474
Refined mesh in = 0.24 s
After refinement feature refinement iteration 7 : cells:851326  faces:2853753  points:1163524
Cells per refinement level:
    0	195406
    1	6688
    2	14826
    3	32465
    4	66701
    5	172616
    6	362624
Balanced mesh in = 4.09 s
After balancing feature refinement iteration 7 : cells:851326  faces:2853753  points:1163524
Cells per refinement level:
    0	195406
    1	6688
    2	14826
    3	32465
    4	66701
    5	172616
    6	362624

Feature refinement iteration 8
------------------------------

Marked for refinement due to explicit features             : 1 cells.
Determined cells to refine in = 4.33 s
Selected for feature refinement : 3 cells (out of 851326)
Edge intersection testing:
    Number of edges             : 2853816
    Number of edges to retest   : 265
    Number of intersected edges : 256474
Refined mesh in = 0.18 s
After refinement feature refinement iteration 8 : cells:851347  faces:2853816  points:1163545
Cells per refinement level:
    0	195406
    1	6688
    2	14826
    3	32464
    4	66708
    5	172623
    6	362632
Skipping balancing since max unbalance 0.009961 is less than allowable 0.1

Feature refinement iteration 9
------------------------------

Marked for refinement due to explicit features             : 0 cells.
Determined cells to refine in = 4.32 s
Selected for feature refinement : 0 cells (out of 851347)
Stopping refining since too few cells selected.


Surface refinement iteration 0
------------------------------

Marked for refinement due to surface intersection          : 28330 cells.
Marked for refinement due to curvature/regions             : 4159 cells.
Determined cells to refine in = 0.35 s
Selected for refinement : 34221 cells (out of 851347)
Edge intersection testing:
    Number of edges             : 3628887
    Number of edges to retest   : 1249977
    Number of intersected edges : 312574
Refined mesh in = 0.52 s
After refinement surface refinement iteration 0 : cells:1090894  faces:3628887  points:1458966
Cells per refinement level:
    0	194790
    1	10114
    2	22910
    3	54970
    4	123246
    5	288960
    6	395904
Balanced mesh in = 5.11 s
After balancing surface refinement iteration 0 : cells:1090894  faces:3628887  points:1458966
Cells per refinement level:
    0	194790
    1	10114
    2	22910
    3	54970
    4	123246
    5	288960
    6	395904

Surface refinement iteration 1
------------------------------

Marked for refinement due to surface intersection          : 54272 cells.
Marked for refinement due to curvature/regions             : 972 cells.
Determined cells to refine in = 0.41 s
Selected for refinement : 58026 cells (out of 1090894)
Edge intersection testing:
    Number of edges             : 4931061
    Number of edges to retest   : 1904317
    Number of intersected edges : 398972
Refined mesh in = 0.57 s
After refinement surface refinement iteration 1 : cells:1497076  faces:4931061  points:1948221
Cells per refinement level:
    0	194728
    1	7758
    2	38910
    3	95654
    4	200518
    5	555828
    6	403680
Balanced mesh in = 6.25 s
After balancing surface refinement iteration 1 : cells:1497076  faces:4931061  points:1948221
Cells per refinement level:
    0	194728
    1	7758
    2	38910
    3	95654
    4	200518
    5	555828
    6	403680

Surface refinement iteration 2
------------------------------

Marked for refinement due to surface intersection          : 83264 cells.
Marked for refinement due to curvature/regions             : 0 cells.
Determined cells to refine in = 0.5 s
Selected for refinement : 87520 cells (out of 1497076)
Edge intersection testing:
    Number of edges             : 6888102
    Number of edges to retest   : 2701653
    Number of intersected edges : 522518
Refined mesh in = 0.61 s
After refinement surface refinement iteration 2 : cells:2109716  faces:6888102  points:2679136
Cells per refinement level:
    0	194542
    1	8400
    2	34814
    3	158654
    4	340102
    5	969524
    6	403680
Balanced mesh in = 8.92 s
After balancing surface refinement iteration 2 : cells:2109716  faces:6888102  points:2679136
Cells per refinement level:
    0	194542
    1	8400
    2	34814
    3	158654
    4	340102
    5	969524
    6	403680

Surface refinement iteration 3
------------------------------

Marked for refinement due to surface intersection          : 126208 cells.
Marked for refinement due to curvature/regions             : 0 cells.
Determined cells to refine in = 0.55 s
Selected for refinement : 132000 cells (out of 2109716)
Edge intersection testing:
    Number of edges             : 9839739
    Number of edges to retest   : 3935358
    Number of intersected edges : 710892
Refined mesh in = 0.88 s
After refinement surface refinement iteration 3 : cells:3033716  faces:9839739  points:3781371
Cells per refinement level:
    0	194494
    1	8592
    2	32798
    3	149998
    4	545542
    5	1698612
    6	403680
Balanced mesh in = 13.51 s
After balancing surface refinement iteration 3 : cells:3033716  faces:9839739  points:3781371
Cells per refinement level:
    0	194494
    1	8592
    2	32798
    3	149998
    4	545542
    5	1698612
    6	403680

Surface refinement iteration 4
------------------------------

Marked for refinement due to surface intersection          : 140288 cells.
Marked for refinement due to curvature/regions             : 0 cells.
Determined cells to refine in = 0.68 s
Selected for refinement : 143360 cells (out of 3033716)
Edge intersection testing:
    Number of edges             : 13048395
    Number of edges to retest   : 4242840
    Number of intersected edges : 919660
Refined mesh in = 1.16 s
After refinement surface refinement iteration 4 : cells:4037236  faces:13048395  points:4981048
Cells per refinement level:
    0	194494
    1	8592
    2	32798
    3	146926
    4	429830
    5	2820916
    6	403680
Balanced mesh in = 18.04 s
After balancing surface refinement iteration 4 : cells:4037236  faces:13048395  points:4981048
Cells per refinement level:
    0	194494
    1	8592
    2	32798
    3	146926
    4	429830
    5	2820916
    6	403680

Surface refinement iteration 5
------------------------------

Marked for refinement due to surface intersection          : 0 cells.
Marked for refinement due to curvature/regions             : 0 cells.
Determined cells to refine in = 1.02 s
Selected for refinement : 0 cells (out of 4037236)
Stopping refining since too few cells selected.


Removing mesh beyond surface intersections
------------------------------------------

Found point (2.0001 0.0001 0.5002) in global region 1 out of 7 regions.
Keeping all cells in region 1 containing point (2.0001 0.0001 0.5002)
Selected for keeping : 3122853 cells.
Edge intersection testing:
    Number of edges             : 10352862
    Number of edges to retest   : 846303
    Number of intersected edges : 919660

Shell refinement iteration 0
----------------------------

Marked for refinement due to distance to explicit features : 0 cells.
Marked for refinement due to refinement shells             : 354873 cells.
Determined cells to refine in = 3.89 s
Selected for internal refinement : 488336 cells (out of 3122853)
Edge intersection testing:
    Number of edges             : 20704140
    Number of edges to retest   : 15733103
    Number of intersected edges : 968084
Refined mesh in = 4.4 s
After refinement shell refinement iteration 0 : cells:6541205  faces:20704140  points:7617890
Cells per refinement level:
    0	128496
    1	526560
    2	52532
    3	177451
    4	611259
    5	3944045
    6	1100862
Balanced mesh in = 22.97 s
After balancing shell refinement iteration 0 : cells:6541205  faces:20704140  points:7618091
Cells per refinement level:
    0	128496
    1	526560
    2	52532
    3	177451
    4	611259
    5	3944045
    6	1100862

Shell refinement iteration 1
----------------------------

Marked for refinement due to distance to explicit features : 0 cells.
Marked for refinement due to refinement shells             : 402436 cells.
Determined cells to refine in = 0.7 s
Selected for internal refinement : 457837 cells (out of 6541205)
Edge intersection testing:
    Number of edges             : 30383430
    Number of edges to retest   : 15357992
    Number of intersected edges : 1014991
Refined mesh in = 4.69 s
After refinement shell refinement iteration 1 : cells:9746064  faces:30383430  points:10887723
Cells per refinement level:
    0	126211
    1	346388
    2	1588299
    3	568383
    4	647454
    5	5154819
    6	1314510
Balanced mesh in = 35.19 s
After balancing shell refinement iteration 1 : cells:9746064  faces:30383430  points:10887846
Cells per refinement level:
    0	126211
    1	346388
    2	1588299
    3	568383
    4	647454
    5	5154819
    6	1314510

Shell refinement iteration 2
----------------------------

Marked for refinement due to distance to explicit features : 0 cells.
Marked for refinement due to refinement shells             : 396292 cells.
Determined cells to refine in = 0.83 s
Selected for internal refinement : 405095 cells (out of 9746064)
Balanced mesh in = 37.06 s
After balancing shell refinement iteration 2 : cells:9746064  faces:30383430  points:10888064
Cells per refinement level:
    0	126211
    1	346388
    2	1588299
    3	568383
    4	647454
    5	5154819
    6	1314510
Edge intersection testing:
    Number of edges             : 38943594
    Number of edges to retest   : 10285570
    Number of intersected edges : 1045461
Refined mesh in = 3.59 s
After refinement shell refinement iteration 2 : cells:12581729  faces:38943594  points:13777002
Cells per refinement level:
    0	126194
    1	341524
    2	1231968
    3	3738996
    4	647719
    5	5151242
    6	1344086

Shell refinement iteration 3
----------------------------

Marked for refinement due to distance to explicit features : 0 cells.
Marked for refinement due to refinement shells             : 0 cells.
Determined cells to refine in = 1.09 s
Selected for internal refinement : 1598 cells (out of 12581729)
Skipping balancing since max unbalance 0.0287205 is less than allowable 0.1
After balancing shell refinement iteration 3 : cells:12581729  faces:38943594  points:13777002
Cells per refinement level:
    0	126194
    1	341524
    2	1231968
    3	3738996
    4	647719
    5	5151242
    6	1344086
Edge intersection testing:
    Number of edges             : 38979252
    Number of edges to retest   : 69354
    Number of intersected edges : 1047060
Refined mesh in = 2.61 s
After refinement shell refinement iteration 3 : cells:12592915  faces:38979252  points:13790317
Cells per refinement level:
    0	126194
    1	341512
    2	1232060
    3	3739025
    4	647743
    5	5149663
    6	1356718

Shell refinement iteration 4
----------------------------

Marked for refinement due to distance to explicit features : 0 cells.
Marked for refinement due to refinement shells             : 0 cells.
Determined cells to refine in = 1.07 s
Selected for internal refinement : 1173 cells (out of 12592915)
Skipping balancing since max unbalance 0.0293534 is less than allowable 0.1
After balancing shell refinement iteration 4 : cells:12592915  faces:38979252  points:13790317
Cells per refinement level:
    0	126194
    1	341512
    2	1232060
    3	3739025
    4	647743
    5	5149663
    6	1356718
Edge intersection testing:
    Number of edges             : 39005400
    Number of edges to retest   : 56111
    Number of intersected edges : 1048269
Refined mesh in = 2.59 s
After refinement shell refinement iteration 4 : cells:12601126  faces:39005400  points:13800047
Cells per refinement level:
    0	126194
    1	341512
    2	1232057
    3	3739049
    4	647743
    5	5148493
    6	1366078

Shell refinement iteration 5
----------------------------

Marked for refinement due to distance to explicit features : 0 cells.
Marked for refinement due to refinement shells             : 0 cells.
Determined cells to refine in = 1.07 s
Selected for internal refinement : 1138 cells (out of 12601126)
Skipping balancing since max unbalance 0.0301043 is less than allowable 0.1
After balancing shell refinement iteration 5 : cells:12601126  faces:39005400  points:13800047
Cells per refinement level:
    0	126194
    1	341512
    2	1232057
    3	3739049
    4	647743
    5	5148493
    6	1366078
Edge intersection testing:
    Number of edges             : 39030630
    Number of edges to retest   : 56277
    Number of intersected edges : 1049357
Refined mesh in = 2.59 s
After refinement shell refinement iteration 5 : cells:12609092  faces:39030630  points:13809332
Cells per refinement level:
    0	126194
    1	341512
    2	1232057
    3	3739049
    4	647743
    5	5147355
    6	1375182

Shell refinement iteration 6
----------------------------

Marked for refinement due to distance to explicit features : 0 cells.
Marked for refinement due to refinement shells             : 0 cells.
Determined cells to refine in = 1.07 s
Selected for internal refinement : 1126 cells (out of 12609092)
Skipping balancing since max unbalance 0.0308589 is less than allowable 0.1
After balancing shell refinement iteration 6 : cells:12609092  faces:39030630  points:13809332
Cells per refinement level:
    0	126194
    1	341512
    2	1232057
    3	3739049
    4	647743
    5	5147355
    6	1375182
Edge intersection testing:
    Number of edges             : 39055596
    Number of edges to retest   : 55908
    Number of intersected edges : 1050436
Refined mesh in = 2.58 s
After refinement shell refinement iteration 6 : cells:12616974  faces:39055596  points:13818523
Cells per refinement level:
    0	126194
    1	341512
    2	1232057
    3	3739049
    4	647743
    5	5146229
    6	1384190

Shell refinement iteration 7
----------------------------

Marked for refinement due to distance to explicit features : 0 cells.
Marked for refinement due to refinement shells             : 0 cells.
Determined cells to refine in = 1.08 s
Selected for internal refinement : 1170 cells (out of 12616974)
Skipping balancing since max unbalance 0.0316317 is less than allowable 0.1
After balancing shell refinement iteration 7 : cells:12616974  faces:39055596  points:13818523
Cells per refinement level:
    0	126194
    1	341512
    2	1232057
    3	3739049
    4	647743
    5	5146229
    6	1384190
Edge intersection testing:
    Number of edges             : 39081543
    Number of edges to retest   : 57095
    Number of intersected edges : 1051579
Refined mesh in = 2.59 s
After refinement shell refinement iteration 7 : cells:12625164  faces:39081543  points:13828073
Cells per refinement level:
    0	126194
    1	341512
    2	1232057
    3	3739049
    4	647743
    5	5145059
    6	1393550

Shell refinement iteration 8
----------------------------

Marked for refinement due to distance to explicit features : 0 cells.
Marked for refinement due to refinement shells             : 0 cells.
Determined cells to refine in = 1.08 s
Selected for internal refinement : 1073 cells (out of 12625164)
Skipping balancing since max unbalance 0.0323926 is less than allowable 0.1
After balancing shell refinement iteration 8 : cells:12625164  faces:39081543  points:13828073
Cells per refinement level:
    0	126194
    1	341512
    2	1232057
    3	3739049
    4	647743
    5	5145059
    6	1393550
Edge intersection testing:
    Number of edges             : 39105189
    Number of edges to retest   : 53545
    Number of intersected edges : 1052554
Refined mesh in = 2.61 s
After refinement shell refinement iteration 8 : cells:12632675  faces:39105189  points:13836673
Cells per refinement level:
    0	126194
    1	341512
    2	1232057
    3	3739049
    4	647743
    5	5143986
    6	1402134

Shell refinement iteration 9
----------------------------

Marked for refinement due to distance to explicit features : 0 cells.
Marked for refinement due to refinement shells             : 0 cells.
Determined cells to refine in = 1.09 s
Selected for internal refinement : 1002 cells (out of 12632675)
Skipping balancing since max unbalance 0.0332818 is less than allowable 0.1
After balancing shell refinement iteration 9 : cells:12632675  faces:39105189  points:13836673
Cells per refinement level:
    0	126194
    1	341512
    2	1232057
    3	3739049
    4	647743
    5	5143986
    6	1402134
Edge intersection testing:
    Number of edges             : 39127389
    Number of edges to retest   : 49533
    Number of intersected edges : 1053478
Refined mesh in = 2.59 s
After refinement shell refinement iteration 9 : cells:12639689  faces:39127389  points:13844841
Cells per refinement level:
    0	126194
    1	341512
    2	1232057
    3	3739049
    4	647743
    5	5142984
    6	1410150

Shell refinement iteration 10
----------------------------

Marked for refinement due to distance to explicit features : 0 cells.
Marked for refinement due to refinement shells             : 0 cells.
Determined cells to refine in = 1.08 s
Selected for internal refinement : 983 cells (out of 12639689)
Skipping balancing since max unbalance 0.0340922 is less than allowable 0.1
After balancing shell refinement iteration 10 : cells:12639689  faces:39127389  points:13844841
Cells per refinement level:
    0	126194
    1	341512
    2	1232057
    3	3739049
    4	647743
    5	5142984
    6	1410150
Edge intersection testing:
    Number of edges             : 39149172
    Number of edges to retest   : 48846
    Number of intersected edges : 1054383
Refined mesh in = 2.65 s
After refinement shell refinement iteration 10 : cells:12646570  faces:39149172  points:13852858
Cells per refinement level:
    0	126194
    1	341512
    2	1232057
    3	3739049
    4	647743
    5	5142001
    6	1418014

Shell refinement iteration 11
----------------------------

Marked for refinement due to distance to explicit features : 0 cells.
Marked for refinement due to refinement shells             : 0 cells.
Determined cells to refine in = 1.07 s
Selected for internal refinement : 1023 cells (out of 12646570)
Skipping balancing since max unbalance 0.0349675 is less than allowable 0.1
After balancing shell refinement iteration 11 : cells:12646570  faces:39149172  points:13852858
Cells per refinement level:
    0	126194
    1	341512
    2	1232057
    3	3739049
    4	647743
    5	5142001
    6	1418014
Edge intersection testing:
    Number of edges             : 39171861
    Number of edges to retest   : 50168
    Number of intersected edges : 1055349
Refined mesh in = 2.6 s
After refinement shell refinement iteration 11 : cells:12653731  faces:39171861  points:13861221
Cells per refinement level:
    0	126194
    1	341512
    2	1232057
    3	3739049
    4	647743
    5	5140978
    6	1426198

Shell refinement iteration 12
----------------------------

Marked for refinement due to distance to explicit features : 0 cells.
Marked for refinement due to refinement shells             : 0 cells.
Determined cells to refine in = 1.09 s
Selected for internal refinement : 996 cells (out of 12653731)
Skipping balancing since max unbalance 0.0358129 is less than allowable 0.1
After balancing shell refinement iteration 12 : cells:12653731  faces:39171861  points:13861221
Cells per refinement level:
    0	126194
    1	341512
    2	1232057
    3	3739049
    4	647743
    5	5140978
    6	1426198
Edge intersection testing:
    Number of edges             : 39193914
    Number of edges to retest   : 49310
    Number of intersected edges : 1056258
Refined mesh in = 2.61 s
After refinement shell refinement iteration 12 : cells:12660703  faces:39193914  points:13869326
Cells per refinement level:
    0	126194
    1	341512
    2	1232057
    3	3739049
    4	647743
    5	5139982
    6	1434166

Shell refinement iteration 13
----------------------------

Marked for refinement due to distance to explicit features : 0 cells.
Marked for refinement due to refinement shells             : 0 cells.
Determined cells to refine in = 1.07 s
Selected for internal refinement : 1014 cells (out of 12660703)
Skipping balancing since max unbalance 0.0366472 is less than allowable 0.1
After balancing shell refinement iteration 13 : cells:12660703  faces:39193914  points:13869326
Cells per refinement level:
    0	126194
    1	341512
    2	1232057
    3	3739049
    4	647743
    5	5139982
    6	1434166
Edge intersection testing:
    Number of edges             : 39216411
    Number of edges to retest   : 49858
    Number of intersected edges : 1057218
Refined mesh in = 2.62 s
After refinement shell refinement iteration 13 : cells:12667801  faces:39216411  points:13877623
Cells per refinement level:
    0	126194
    1	341512
    2	1232057
    3	3739049
    4	647743
    5	5138968
    6	1442278

Shell refinement iteration 14
----------------------------

Marked for refinement due to distance to explicit features : 0 cells.
Marked for refinement due to refinement shells             : 0 cells.
Determined cells to refine in = 1.08 s
Selected for internal refinement : 1002 cells (out of 12667801)
Skipping balancing since max unbalance 0.0375094 is less than allowable 0.1
After balancing shell refinement iteration 14 : cells:12667801  faces:39216411  points:13877623
Cells per refinement level:
    0	126194
    1	341512
    2	1232057
    3	3739049
    4	647743
    5	5138968
    6	1442278
Edge intersection testing:
    Number of edges             : 39238596
    Number of edges to retest   : 49495
    Number of intersected edges : 1058129
Refined mesh in = 2.62 s
After refinement shell refinement iteration 14 : cells:12674815  faces:39238596  points:13885776
Cells per refinement level:
    0	126194
    1	341512
    2	1232057
    3	3739049
    4	647743
    5	5137966
    6	1450294

Shell refinement iteration 15
----------------------------

Marked for refinement due to distance to explicit features : 0 cells.
Marked for refinement due to refinement shells             : 0 cells.
Determined cells to refine in = 1.08 s
Selected for internal refinement : 994 cells (out of 12674815)
Skipping balancing since max unbalance 0.0383312 is less than allowable 0.1
After balancing shell refinement iteration 15 : cells:12674815  faces:39238596  points:13885776
Cells per refinement level:
    0	126194
    1	341512
    2	1232057
    3	3739049
    4	647743
    5	5137966
    6	1450294
Edge intersection testing:
    Number of edges             : 39260604
    Number of edges to retest   : 48818
    Number of intersected edges : 1059047
Refined mesh in = 2.62 s
After refinement shell refinement iteration 15 : cells:12681773  faces:39260604  points:13893858
Cells per refinement level:
    0	126194
    1	341512
    2	1232057
    3	3739049
    4	647743
    5	5136972
    6	1458246

Shell refinement iteration 16
----------------------------

Marked for refinement due to distance to explicit features : 0 cells.
Marked for refinement due to refinement shells             : 0 cells.
Determined cells to refine in = 1.08 s
Selected for internal refinement : 956 cells (out of 12681773)
Skipping balancing since max unbalance 0.0391958 is less than allowable 0.1
After balancing shell refinement iteration 16 : cells:12681773  faces:39260604  points:13893858
Cells per refinement level:
    0	126194
    1	341512
    2	1232057
    3	3739049
    4	647743
    5	5136972
    6	1458246
Edge intersection testing:
    Number of edges             : 39281784
    Number of edges to retest   : 47013
    Number of intersected edges : 1059938
Refined mesh in = 2.64 s
After refinement shell refinement iteration 16 : cells:12688465  faces:39281784  points:13901650
Cells per refinement level:
    0	126194
    1	341512
    2	1232057
    3	3739049
    4	647743
    5	5136016
    6	1465894

Shell refinement iteration 17
----------------------------

Marked for refinement due to distance to explicit features : 0 cells.
Marked for refinement due to refinement shells             : 0 cells.
Determined cells to refine in = 1.08 s
Selected for internal refinement : 944 cells (out of 12688465)
Skipping balancing since max unbalance 0.0400665 is less than allowable 0.1
After balancing shell refinement iteration 17 : cells:12688465  faces:39281784  points:13901650
Cells per refinement level:
    0	126194
    1	341512
    2	1232057
    3	3739049
    4	647743
    5	5136016
    6	1465894
Edge intersection testing:
    Number of edges             : 39302658
    Number of edges to retest   : 46334
    Number of intersected edges : 1060802
Refined mesh in = 2.64 s
After refinement shell refinement iteration 17 : cells:12695073  faces:39302658  points:13909298
Cells per refinement level:
    0	126194
    1	341512
    2	1232057
    3	3739049
    4	647743
    5	5135072
    6	1473446

Shell refinement iteration 18
----------------------------

Marked for refinement due to distance to explicit features : 0 cells.
Marked for refinement due to refinement shells             : 0 cells.
Determined cells to refine in = 1.08 s
Selected for internal refinement : 897 cells (out of 12695073)
Skipping balancing since max unbalance 0.0428874 is less than allowable 0.1
After balancing shell refinement iteration 18 : cells:12695073  faces:39302658  points:13909298
Cells per refinement level:
    0	126194
    1	341512
    2	1232057
    3	3739049
    4	647743
    5	5135072
    6	1473446
Edge intersection testing:
    Number of edges             : 39322515
    Number of edges to retest   : 44370
    Number of intersected edges : 1061603
Refined mesh in = 2.63 s
After refinement shell refinement iteration 18 : cells:12701352  faces:39322515  points:13916597
Cells per refinement level:
    0	126194
    1	341512
    2	1232057
    3	3739049
    4	647743
    5	5134175
    6	1480622

Shell refinement iteration 19
----------------------------

Marked for refinement due to distance to explicit features : 0 cells.
Marked for refinement due to refinement shells             : 0 cells.
Determined cells to refine in = 1.1 s
Selected for internal refinement : 887 cells (out of 12701352)
Skipping balancing since max unbalance 0.0458372 is less than allowable 0.1
After balancing shell refinement iteration 19 : cells:12701352  faces:39322515  points:13916597
Cells per refinement level:
    0	126194
    1	341512
    2	1232057
    3	3739049
    4	647743
    5	5134175
    6	1480622
Edge intersection testing:
    Number of edges             : 39342159
    Number of edges to retest   : 43716
    Number of intersected edges : 1062400
Refined mesh in = 2.63 s
After refinement shell refinement iteration 19 : cells:12707561  faces:39342159  points:13923823
Cells per refinement level:
    0	126194
    1	341512
    2	1232057
    3	3739049
    4	647743
    5	5133288
    6	1487718

Shell refinement iteration 20
----------------------------

Marked for refinement due to distance to explicit features : 0 cells.
Marked for refinement due to refinement shells             : 0 cells.
Determined cells to refine in = 1.08 s
Selected for internal refinement : 862 cells (out of 12707561)
Skipping balancing since max unbalance 0.0482039 is less than allowable 0.1
After balancing shell refinement iteration 20 : cells:12707561  faces:39342159  points:13923823
Cells per refinement level:
    0	126194
    1	341512
    2	1232057
    3	3739049
    4	647743
    5	5133288
    6	1487718
Edge intersection testing:
    Number of edges             : 39361173
    Number of edges to retest   : 42420
    Number of intersected edges : 1063147
Refined mesh in = 2.64 s
After refinement shell refinement iteration 20 : cells:12713595  faces:39361173  points:13930758
Cells per refinement level:
    0	126194
    1	341512
    2	1232057
    3	3739049
    4	647743
    5	5132426
    6	1494614

Shell refinement iteration 21
----------------------------

Marked for refinement due to distance to explicit features : 0 cells.
Marked for refinement due to refinement shells             : 0 cells.
Determined cells to refine in = 1.1 s
Selected for internal refinement : 787 cells (out of 12713595)
Skipping balancing since max unbalance 0.0499513 is less than allowable 0.1
After balancing shell refinement iteration 21 : cells:12713595  faces:39361173  points:13930758
Cells per refinement level:
    0	126194
    1	341512
    2	1232057
    3	3739049
    4	647743
    5	5132426
    6	1494614
Edge intersection testing:
    Number of edges             : 39378591
    Number of edges to retest   : 38905
    Number of intersected edges : 1063862
Refined mesh in = 2.64 s
After refinement shell refinement iteration 21 : cells:12719104  faces:39378591  points:13937157
Cells per refinement level:
    0	126194
    1	341512
    2	1232057
    3	3739049
    4	647743
    5	5131639
    6	1500910

Shell refinement iteration 22
----------------------------

Marked for refinement due to distance to explicit features : 0 cells.
Marked for refinement due to refinement shells             : 0 cells.
Determined cells to refine in = 1.08 s
Selected for internal refinement : 743 cells (out of 12719104)
Skipping balancing since max unbalance 0.0515246 is less than allowable 0.1
After balancing shell refinement iteration 22 : cells:12719104  faces:39378591  points:13937157
Cells per refinement level:
    0	126194
    1	341512
    2	1232057
    3	3739049
    4	647743
    5	5131639
    6	1500910
Edge intersection testing:
    Number of edges             : 39395016
    Number of edges to retest   : 36911
    Number of intersected edges : 1064505
Refined mesh in = 2.65 s
After refinement shell refinement iteration 22 : cells:12724305  faces:39395016  points:13943180
Cells per refinement level:
    0	126194
    1	341512
    2	1232057
    3	3739049
    4	647743
    5	5130896
    6	1506854

Shell refinement iteration 23
----------------------------

Marked for refinement due to distance to explicit features : 0 cells.
Marked for refinement due to refinement shells             : 0 cells.
Determined cells to refine in = 1.08 s
Selected for internal refinement : 791 cells (out of 12724305)
Skipping balancing since max unbalance 0.0532668 is less than allowable 0.1
After balancing shell refinement iteration 23 : cells:12724305  faces:39395016  points:13943180
Cells per refinement level:
    0	126194
    1	341512
    2	1232057
    3	3739049
    4	647743
    5	5130896
    6	1506854
Edge intersection testing:
    Number of edges             : 39412578
    Number of edges to retest   : 38481
    Number of intersected edges : 1065257
Refined mesh in = 2.65 s
After refinement shell refinement iteration 23 : cells:12729842  faces:39412578  points:13949668
Cells per refinement level:
    0	126194
    1	341512
    2	1232057
    3	3739049
    4	647743
    5	5130105
    6	1513182

Shell refinement iteration 24
----------------------------

Marked for refinement due to distance to explicit features : 0 cells.
Marked for refinement due to refinement shells             : 0 cells.
Determined cells to refine in = 1.09 s
Selected for internal refinement : 749 cells (out of 12729842)
Skipping balancing since max unbalance 0.0548559 is less than allowable 0.1
After balancing shell refinement iteration 24 : cells:12729842  faces:39412578  points:13949668
Cells per refinement level:
    0	126194
    1	341512
    2	1232057
    3	3739049
    4	647743
    5	5130105
    6	1513182
Edge intersection testing:
    Number of edges             : 39429114
    Number of edges to retest   : 36954
    Number of intersected edges : 1065898
Refined mesh in = 2.66 s
After refinement shell refinement iteration 24 : cells:12735085  faces:39429114  points:13955716
Cells per refinement level:
    0	126194
    1	341512
    2	1232057
    3	3739049
    4	647743
    5	5129356
    6	1519174

Shell refinement iteration 25
----------------------------

Marked for refinement due to distance to explicit features : 0 cells.
Marked for refinement due to refinement shells             : 0 cells.
Determined cells to refine in = 1.09 s
Selected for internal refinement : 738 cells (out of 12735085)
Skipping balancing since max unbalance 0.05656 is less than allowable 0.1
After balancing shell refinement iteration 25 : cells:12735085  faces:39429114  points:13955716
Cells per refinement level:
    0	126194
    1	341512
    2	1232057
    3	3739049
    4	647743
    5	5129356
    6	1519174
Edge intersection testing:
    Number of edges             : 39445440
    Number of edges to retest   : 36389
    Number of intersected edges : 1066556
Refined mesh in = 2.67 s
After refinement shell refinement iteration 25 : cells:12740251  faces:39445440  points:13961706
Cells per refinement level:
    0	126194
    1	341512
    2	1232057
    3	3739049
    4	647743
    5	5128618
    6	1525078

Shell refinement iteration 26
----------------------------

Marked for refinement due to distance to explicit features : 0 cells.
Marked for refinement due to refinement shells             : 0 cells.
Determined cells to refine in = 1.09 s
Selected for internal refinement : 693 cells (out of 12740251)
Skipping balancing since max unbalance 0.0582669 is less than allowable 0.1
After balancing shell refinement iteration 26 : cells:12740251  faces:39445440  points:13961706
Cells per refinement level:
    0	126194
    1	341512
    2	1232057
    3	3739049
    4	647743
    5	5128618
    6	1525078
Edge intersection testing:
    Number of edges             : 39460782
    Number of edges to retest   : 34151
    Number of intersected edges : 1067171
Refined mesh in = 2.65 s
After refinement shell refinement iteration 26 : cells:12745102  faces:39460782  points:13967346
Cells per refinement level:
    0	126194
    1	341512
    2	1232057
    3	3739049
    4	647743
    5	5127925
    6	1530622

Shell refinement iteration 27
----------------------------

Marked for refinement due to distance to explicit features : 0 cells.
Marked for refinement due to refinement shells             : 0 cells.
Determined cells to refine in = 1.08 s
Selected for internal refinement : 703 cells (out of 12745102)
Skipping balancing since max unbalance 0.0599448 is less than allowable 0.1
After balancing shell refinement iteration 27 : cells:12745102  faces:39460782  points:13967346
Cells per refinement level:
    0	126194
    1	341512
    2	1232057
    3	3739049
    4	647743
    5	5127925
    6	1530622
Edge intersection testing:
    Number of edges             : 39476358
    Number of edges to retest   : 34625
    Number of intersected edges : 1067798
Refined mesh in = 2.68 s
After refinement shell refinement iteration 27 : cells:12750023  faces:39476358  points:13973080
Cells per refinement level:
    0	126194
    1	341512
    2	1232057
    3	3739049
    4	647743
    5	5127222
    6	1536246

Shell refinement iteration 28
----------------------------

Marked for refinement due to distance to explicit features : 0 cells.
Marked for refinement due to refinement shells             : 0 cells.
Determined cells to refine in = 1.09 s
Selected for internal refinement : 695 cells (out of 12750023)
Skipping balancing since max unbalance 0.0615381 is less than allowable 0.1
After balancing shell refinement iteration 28 : cells:12750023  faces:39476358  points:13973080
Cells per refinement level:
    0	126194
    1	341512
    2	1232057
    3	3739049
    4	647743
    5	5127222
    6	1536246
Edge intersection testing:
    Number of edges             : 39491733
    Number of edges to retest   : 34168
    Number of intersected edges : 1068413
Refined mesh in = 2.65 s
After refinement shell refinement iteration 28 : cells:12754888  faces:39491733  points:13978723
Cells per refinement level:
    0	126194
    1	341512
    2	1232057
    3	3739049
    4	647743
    5	5126527
    6	1541806

Shell refinement iteration 29
----------------------------

Marked for refinement due to distance to explicit features : 0 cells.
Marked for refinement due to refinement shells             : 0 cells.
Determined cells to refine in = 1.09 s
Selected for internal refinement : 672 cells (out of 12754888)
Skipping balancing since max unbalance 0.0632973 is less than allowable 0.1
After balancing shell refinement iteration 29 : cells:12754888  faces:39491733  points:13978723
Cells per refinement level:
    0	126194
    1	341512
    2	1232057
    3	3739049
    4	647743
    5	5126527
    6	1541806
Edge intersection testing:
    Number of edges             : 39506586
    Number of edges to retest   : 33240
    Number of intersected edges : 1069016
Refined mesh in = 2.67 s
After refinement shell refinement iteration 29 : cells:12759592  faces:39506586  points:13984164
Cells per refinement level:
    0	126194
    1	341512
    2	1232057
    3	3739049
    4	647743
    5	5125855
    6	1547182

Shell refinement iteration 30
----------------------------

Marked for refinement due to distance to explicit features : 0 cells.
Marked for refinement due to refinement shells             : 0 cells.
Determined cells to refine in = 1.09 s
Selected for internal refinement : 618 cells (out of 12759592)
Skipping balancing since max unbalance 0.0649332 is less than allowable 0.1
After balancing shell refinement iteration 30 : cells:12759592  faces:39506586  points:13984164
Cells per refinement level:
    0	126194
    1	341512
    2	1232057
    3	3739049
    4	647743
    5	5125855
    6	1547182
Edge intersection testing:
    Number of edges             : 39520254
    Number of edges to retest   : 30717
    Number of intersected edges : 1069559
Refined mesh in = 2.68 s
After refinement shell refinement iteration 30 : cells:12763918  faces:39520254  points:13989180
Cells per refinement level:
    0	126194
    1	341512
    2	1232057
    3	3739049
    4	647743
    5	5125237
    6	1552126

Shell refinement iteration 31
----------------------------

Marked for refinement due to distance to explicit features : 0 cells.
Marked for refinement due to refinement shells             : 0 cells.
Determined cells to refine in = 1.08 s
Selected for internal refinement : 653 cells (out of 12763918)
Skipping balancing since max unbalance 0.0667449 is less than allowable 0.1
After balancing shell refinement iteration 31 : cells:12763918  faces:39520254  points:13989180
Cells per refinement level:
    0	126194
    1	341512
    2	1232057
    3	3739049
    4	647743
    5	5125237
    6	1552126
Edge intersection testing:
    Number of edges             : 39534750
    Number of edges to retest   : 31943
    Number of intersected edges : 1070171
Refined mesh in = 2.67 s
After refinement shell refinement iteration 31 : cells:12768489  faces:39534750  points:13994534
Cells per refinement level:
    0	126194
    1	341512
    2	1232057
    3	3739049
    4	647743
    5	5124584
    6	1557350

Shell refinement iteration 32
----------------------------

Marked for refinement due to distance to explicit features : 0 cells.
Marked for refinement due to refinement shells             : 0 cells.
Determined cells to refine in = 1.09 s
Selected for internal refinement : 624 cells (out of 12768489)
Skipping balancing since max unbalance 0.068353 is less than allowable 0.1
After balancing shell refinement iteration 32 : cells:12768489  faces:39534750  points:13994534
Cells per refinement level:
    0	126194
    1	341512
    2	1232057
    3	3739049
    4	647743
    5	5124584
    6	1557350
Edge intersection testing:
    Number of edges             : 39548496
    Number of edges to retest   : 30434
    Number of intersected edges : 1070718
Refined mesh in = 2.68 s
After refinement shell refinement iteration 32 : cells:12772857  faces:39548496  points:13999536
Cells per refinement level:
    0	126194
    1	341512
    2	1232057
    3	3739049
    4	647743
    5	5123960
    6	1562342

Shell refinement iteration 33
----------------------------

Marked for refinement due to distance to explicit features : 0 cells.
Marked for refinement due to refinement shells             : 0 cells.
Determined cells to refine in = 1.09 s
Selected for internal refinement : 530 cells (out of 12772857)
Skipping balancing since max unbalance 0.0689851 is less than allowable 0.1
After balancing shell refinement iteration 33 : cells:12772857  faces:39548496  points:13999536
Cells per refinement level:
    0	126194
    1	341512
    2	1232057
    3	3739049
    4	647743
    5	5123960
    6	1562342
Edge intersection testing:
    Number of edges             : 39560193
    Number of edges to retest   : 26667
    Number of intersected edges : 1071190
Refined mesh in = 2.67 s
After refinement shell refinement iteration 33 : cells:12776567  faces:39560193  points:14003809
Cells per refinement level:
    0	126194
    1	341512
    2	1232057
    3	3739049
    4	647743
    5	5123430
    6	1566582

Shell refinement iteration 34
----------------------------

Marked for refinement due to distance to explicit features : 0 cells.
Marked for refinement due to refinement shells             : 0 cells.
Determined cells to refine in = 1.09 s
Selected for internal refinement : 504 cells (out of 12776567)
Skipping balancing since max unbalance 0.0694568 is less than allowable 0.1
After balancing shell refinement iteration 34 : cells:12776567  faces:39560193  points:14003809
Cells per refinement level:
    0	126194
    1	341512
    2	1232057
    3	3739049
    4	647743
    5	5123430
    6	1566582
Edge intersection testing:
    Number of edges             : 39571353
    Number of edges to retest   : 24882
    Number of intersected edges : 1071648
Refined mesh in = 2.66 s
After refinement shell refinement iteration 34 : cells:12780095  faces:39571353  points:14007913
Cells per refinement level:
    0	126194
    1	341512
    2	1232057
    3	3739049
    4	647743
    5	5122926
    6	1570614

Shell refinement iteration 35
----------------------------

Marked for refinement due to distance to explicit features : 0 cells.
Marked for refinement due to refinement shells             : 0 cells.
Determined cells to refine in = 1.09 s
Selected for internal refinement : 487 cells (out of 12780095)
Skipping balancing since max unbalance 0.0697849 is less than allowable 0.1
[...]
    faces with interpolation weights (0..1)  < 0.05        : 0
    faces with volume ratio of neighbour cells < 0.01      : 0
    faces with face twist < 0.05                           : 2
    faces on cells with determinant < 0.001                : 0

Iteration 2
Moving mesh using displacement scaling : min:0.5625  max:1
Checking faces in error :
    non-orthogonality > 65  degrees                        : 0
    faces with face pyramid volume < 1e-13                 : 0
    faces with face-decomposition tet quality < 1e-15      : 12
    faces with concavity > 80  degrees                     : 0
    faces with skewness > 4   (internal) or 20  (boundary) : 0
    faces with interpolation weights (0..1)  < 0.05        : 0
    faces with volume ratio of neighbour cells < 0.01      : 0
    faces with face twist < 0.05                           : 2
    faces on cells with determinant < 0.001                : 0

Iteration 3
Moving mesh using displacement scaling : min:0.421875  max:1
Checking faces in error :
    non-orthogonality > 65  degrees                        : 0
    faces with face pyramid volume < 1e-13                 : 0
    faces with face-decomposition tet quality < 1e-15      : 10
    faces with concavity > 80  degrees                     : 0
    faces with skewness > 4   (internal) or 20  (boundary) : 0
    faces with interpolation weights (0..1)  < 0.05        : 0
    faces with volume ratio of neighbour cells < 0.01      : 0
    faces with face twist < 0.05                           : 2
    faces on cells with determinant < 0.001                : 0

Iteration 4
Moving mesh using displacement scaling : min:0.316406  max:1
Checking faces in error :
    non-orthogonality > 65  degrees                        : 0
    faces with face pyramid volume < 1e-13                 : 0
    faces with face-decomposition tet quality < 1e-15      : 10
    faces with concavity > 80  degrees                     : 0
    faces with skewness > 4   (internal) or 20  (boundary) : 0
    faces with interpolation weights (0..1)  < 0.05        : 0
    faces with volume ratio of neighbour cells < 0.01      : 0
    faces with face twist < 0.05                           : 2
    faces on cells with determinant < 0.001                : 0

Iteration 5
Displacement scaling for error reduction set to 0.
Moving mesh using displacement scaling : min:0.237305  max:1
Checking faces in error :
    non-orthogonality > 65  degrees                        : 0
    faces with face pyramid volume < 1e-13                 : 0
    faces with face-decomposition tet quality < 1e-15      : 10
    faces with concavity > 80  degrees                     : 0
    faces with skewness > 4   (internal) or 20  (boundary) : 0
    faces with interpolation weights (0..1)  < 0.05        : 0
    faces with volume ratio of neighbour cells < 0.01      : 0
    faces with face twist < 0.05                           : 2
    faces on cells with determinant < 0.001                : 0

Iteration 6
Moving mesh using displacement scaling : min:0  max:1
Checking faces in error :
    non-orthogonality > 65  degrees                        : 0
    faces with face pyramid volume < 1e-13                 : 0
    faces with face-decomposition tet quality < 1e-15      : 0
    faces with concavity > 80  degrees                     : 0
    faces with skewness > 4   (internal) or 20  (boundary) : 0
    faces with interpolation weights (0..1)  < 0.05        : 0
    faces with volume ratio of neighbour cells < 0.01      : 0
    faces with face twist < 0.05                           : 0
    faces on cells with determinant < 0.001                : 0
Successfully moved mesh
Moved mesh in = 5.94 s



Morph iteration 8
-----------------
Calculating patchDisplacement as distance to nearest surface point ...
Wanted displacement : average:1.12029e-05 min:8.88815e-11 max:0.00605469
Calculated surface displacement in = 0.33 s


Detecting near surfaces ...
Overriding nearest with intersection of close gaps at 32 out of 1095299 points.
Overriding displacement on features :
   implicit features    : false
   explicit features    : true
   multi-patch features : true

Detected 0 baffle edges out of 2168282 edges.
Initially selected 11191 points out of 1095299 for reverse attraction.
Selected 32714 points out of 1095299 for reverse attraction.
Removing constraints near multi-patch points : changed 0 points
Stringing feature edges : changed 4 points
Stringing feature edges : changed 0 points
Attraction:
     linear   : max:(-0.00605469 0 -2.22045e-16) avg:(-3.27393e-07 2.38702e-08 -3.99798e-07)
     feature  : max:(0.00368657 0.00435474 -0.000140626) avg:(1.65358e-07 -3.77219e-09 5.37807e-08)
Feature analysis : total master points:1079816 attraction to :
    feature point   : 18
    feature edge    : 11038
    nearest surface : 0
    rest            : 1068760

--> FOAM Warning : Displacement (7.10317e-23 -8.67646e-19 1.42568e-06) at mesh point 34159 coord (-1.5597 0.0714375 0.450798) points through the surrounding patch faces
Smoothing displacement ...
Iteration 0
Iteration 10
Iteration 20
Iteration 30
Iteration 40
Iteration 50
Iteration 60
Iteration 70
Iteration 80
Iteration 90
Iteration 100
Iteration 110
Iteration 120
Iteration 130
Iteration 140
Iteration 150
Iteration 160
Iteration 170
Iteration 180
Iteration 190
Iteration 200
Iteration 210
Iteration 220
Iteration 230
Iteration 240
Iteration 250
Iteration 260
Iteration 270
Iteration 280
Iteration 290
Displacement smoothed in = 16.19 s


Moving mesh ...

Iteration 0
Moving mesh using displacement scaling : min:1  max:1
Checking faces in error :
    non-orthogonality > 65  degrees                        : 5
    faces with face pyramid volume < 1e-13                 : 4
    faces with face-decomposition tet quality < 1e-15      : 17
    faces with concavity > 80  degrees                     : 0
    faces with skewness > 4   (internal) or 20  (boundary) : 0
    faces with interpolation weights (0..1)  < 0.05        : 0
    faces with volume ratio of neighbour cells < 0.01      : 0
    faces with face twist < 0.05                           : 2
    faces on cells with determinant < 0.001                : 0

Iteration 1
Moving mesh using displacement scaling : min:0.75  max:1
Checking faces in error :
    non-orthogonality > 65  degrees                        : 4
    faces with face pyramid volume < 1e-13                 : 0
    faces with face-decomposition tet quality < 1e-15      : 17
    faces with concavity > 80  degrees                     : 0
    faces with skewness > 4   (internal) or 20  (boundary) : 0
    faces with interpolation weights (0..1)  < 0.05        : 0
    faces with volume ratio of neighbour cells < 0.01      : 0
    faces with face twist < 0.05                           : 1
    faces on cells with determinant < 0.001                : 0

Iteration 2
Moving mesh using displacement scaling : min:0.5625  max:1
Checking faces in error :
    non-orthogonality > 65  degrees                        : 0
    faces with face pyramid volume < 1e-13                 : 0
    faces with face-decomposition tet quality < 1e-15      : 17
    faces with concavity > 80  degrees                     : 0
    faces with skewness > 4   (internal) or 20  (boundary) : 0
    faces with interpolation weights (0..1)  < 0.05        : 0
    faces with volume ratio of neighbour cells < 0.01      : 0
    faces with face twist < 0.05                           : 2
    faces on cells with determinant < 0.001                : 0

Iteration 3
Moving mesh using displacement scaling : min:0.421875  max:1
Checking faces in error :
    non-orthogonality > 65  degrees                        : 0
    faces with face pyramid volume < 1e-13                 : 0
    faces with face-decomposition tet quality < 1e-15      : 12
    faces with concavity > 80  degrees                     : 0
    faces with skewness > 4   (internal) or 20  (boundary) : 0
    faces with interpolation weights (0..1)  < 0.05        : 0
    faces with volume ratio of neighbour cells < 0.01      : 0
    faces with face twist < 0.05                           : 2
    faces on cells with determinant < 0.001                : 0

Iteration 4
Moving mesh using displacement scaling : min:0.316406  max:1
Checking faces in error :
    non-orthogonality > 65  degrees                        : 0
    faces with face pyramid volume < 1e-13                 : 0
    faces with face-decomposition tet quality < 1e-15      : 12
    faces with concavity > 80  degrees                     : 0
    faces with skewness > 4   (internal) or 20  (boundary) : 0
    faces with interpolation weights (0..1)  < 0.05        : 0
    faces with volume ratio of neighbour cells < 0.01      : 0
    faces with face twist < 0.05                           : 2
    faces on cells with determinant < 0.001                : 0

Iteration 5
Displacement scaling for error reduction set to 0.
Moving mesh using displacement scaling : min:0.237305  max:1
Checking faces in error :
    non-orthogonality > 65  degrees                        : 0
    faces with face pyramid volume < 1e-13                 : 0
    faces with face-decomposition tet quality < 1e-15      : 12
    faces with concavity > 80  degrees                     : 0
    faces with skewness > 4   (internal) or 20  (boundary) : 0
    faces with interpolation weights (0..1)  < 0.05        : 0
    faces with volume ratio of neighbour cells < 0.01      : 0
    faces with face twist < 0.05                           : 2
    faces on cells with determinant < 0.001                : 0

Iteration 6
Moving mesh using displacement scaling : min:0  max:1
Checking faces in error :
    non-orthogonality > 65  degrees                        : 0
    faces with face pyramid volume < 1e-13                 : 0
    faces with face-decomposition tet quality < 1e-15      : 0
    faces with concavity > 80  degrees                     : 0
    faces with skewness > 4   (internal) or 20  (boundary) : 0
    faces with interpolation weights (0..1)  < 0.05        : 0
    faces with volume ratio of neighbour cells < 0.01      : 0
    faces with face twist < 0.05                           : 0
    faces on cells with determinant < 0.001                : 0
Successfully moved mesh
Moved mesh in = 5.59 s



Morph iteration 9
-----------------
Calculating patchDisplacement as distance to nearest surface point ...
Wanted displacement : average:4.12137e-06 min:1.05549e-11 max:0.0022685
Calculated surface displacement in = 0.33 s


Detecting near surfaces ...
Overriding nearest with intersection of close gaps at 21 out of 1095299 points.
Overriding displacement on features :
   implicit features    : false
   explicit features    : true
   multi-patch features : true

Detected 0 baffle edges out of 2168282 edges.
Initially selected 11201 points out of 1095299 for reverse attraction.
Selected 32720 points out of 1095299 for reverse attraction.
Removing constraints near multi-patch points : changed 0 points
Stringing feature edges : changed 4 points
Stringing feature edges : changed 0 points
Attraction:
     linear   : max:(-0.0022685 0 0) avg:(-1.80383e-07 1.0589e-08 -1.47682e-07)
     feature  : max:(0.00121251 -0.000104923 -3.6692e-06) avg:(3.61949e-08 -1.02738e-09 8.79012e-09)
Feature analysis : total master points:1079816 attraction to :
    feature point   : 18
    feature edge    : 11045
    nearest surface : 0
    rest            : 1068753

--> FOAM Warning : Displacement (0 -1.38778e-17 1.58409e-07) at mesh point 34159 coord (-1.5597 0.0714375 0.4508) points through the surrounding patch faces
Smoothing displacement ...
Iteration 0
Iteration 10
Iteration 20
Iteration 30
Iteration 40
Iteration 50
Iteration 60
Iteration 70
Iteration 80
Iteration 90
Iteration 100
Iteration 110
Iteration 120
Iteration 130
Iteration 140
Iteration 150
Iteration 160
Iteration 170
Iteration 180
Iteration 190
Iteration 200
Iteration 210
Iteration 220
Iteration 230
Iteration 240
Iteration 250
Iteration 260
Iteration 270
Iteration 280
Iteration 290
Displacement smoothed in = 15.79 s


Moving mesh ...

Iteration 0
Moving mesh using displacement scaling : min:1  max:1
Checking faces in error :
    non-orthogonality > 65  degrees                        : 6
    faces with face pyramid volume < 1e-13                 : 7
    faces with face-decomposition tet quality < 1e-15      : 25
    faces with concavity > 80  degrees                     : 0
    faces with skewness > 4   (internal) or 20  (boundary) : 0
    faces with interpolation weights (0..1)  < 0.05        : 0
    faces with volume ratio of neighbour cells < 0.01      : 0
    faces with face twist < 0.05                           : 2
    faces on cells with determinant < 0.001                : 0

Iteration 1
Moving mesh using displacement scaling : min:0.75  max:1
Checking faces in error :
    non-orthogonality > 65  degrees                        : 5
    faces with face pyramid volume < 1e-13                 : 0
    faces with face-decomposition tet quality < 1e-15      : 25
    faces with concavity > 80  degrees                     : 0
    faces with skewness > 4   (internal) or 20  (boundary) : 0
    faces with interpolation weights (0..1)  < 0.05        : 0
    faces with volume ratio of neighbour cells < 0.01      : 0
    faces with face twist < 0.05                           : 4
    faces on cells with determinant < 0.001                : 0

Iteration 2
Moving mesh using displacement scaling : min:0.5625  max:1
Checking faces in error :
    non-orthogonality > 65  degrees                        : 2
    faces with face pyramid volume < 1e-13                 : 0
    faces with face-decomposition tet quality < 1e-15      : 23
    faces with concavity > 80  degrees                     : 0
    faces with skewness > 4   (internal) or 20  (boundary) : 0
    faces with interpolation weights (0..1)  < 0.05        : 0
    faces with volume ratio of neighbour cells < 0.01      : 0
    faces with face twist < 0.05                           : 4
    faces on cells with determinant < 0.001                : 0

Iteration 3
Moving mesh using displacement scaling : min:0.421875  max:1
Checking faces in error :
    non-orthogonality > 65  degrees                        : 0
    faces with face pyramid volume < 1e-13                 : 0
    faces with face-decomposition tet quality < 1e-15      : 21
    faces with concavity > 80  degrees                     : 0
    faces with skewness > 4   (internal) or 20  (boundary) : 0
    faces with interpolation weights (0..1)  < 0.05        : 0
    faces with volume ratio of neighbour cells < 0.01      : 0
    faces with face twist < 0.05                           : 4
    faces on cells with determinant < 0.001                : 0

Iteration 4
Moving mesh using displacement scaling : min:0.316406  max:1
Checking faces in error :
    non-orthogonality > 65  degrees                        : 0
    faces with face pyramid volume < 1e-13                 : 0
    faces with face-decomposition tet quality < 1e-15      : 18
    faces with concavity > 80  degrees                     : 0
    faces with skewness > 4   (internal) or 20  (boundary) : 0
    faces with interpolation weights (0..1)  < 0.05        : 0
    faces with volume ratio of neighbour cells < 0.01      : 0
    faces with face twist < 0.05                           : 3
    faces on cells with determinant < 0.001                : 0

Iteration 5
Displacement scaling for error reduction set to 0.
Moving mesh using displacement scaling : min:0.237305  max:1
Checking faces in error :
    non-orthogonality > 65  degrees                        : 0
    faces with face pyramid volume < 1e-13                 : 0
    faces with face-decomposition tet quality < 1e-15      : 16
    faces with concavity > 80  degrees                     : 0
    faces with skewness > 4   (internal) or 20  (boundary) : 0
    faces with interpolation weights (0..1)  < 0.05        : 0
    faces with volume ratio of neighbour cells < 0.01      : 0
    faces with face twist < 0.05                           : 2
    faces on cells with determinant < 0.001                : 0

Iteration 6
Moving mesh using displacement scaling : min:0  max:1
Checking faces in error :
    non-orthogonality > 65  degrees                        : 0
    faces with face pyramid volume < 1e-13                 : 0
    faces with face-decomposition tet quality < 1e-15      : 0
    faces with concavity > 80  degrees                     : 0
    faces with skewness > 4   (internal) or 20  (boundary) : 0
    faces with interpolation weights (0..1)  < 0.05        : 0
    faces with volume ratio of neighbour cells < 0.01      : 0
    faces with face twist < 0.05                           : 0
    faces on cells with determinant < 0.001                : 0
Successfully moved mesh
Moved mesh in = 5.62 s


Repatching faces according to nearest surface ...
Repatched 82 faces in = 0.24 s


Edge intersection testing:
    Number of edges             : 36004749
    Number of edges to retest   : 5781446
    Number of intersected edges : 1073029
Merging 61684 sets of faces.

Edge intersection testing:
    Number of edges             : 35937895
    Number of edges to retest   : 251960
    Number of intersected edges : 1006175

Undo iteration 0
----------------
Checking faces in error :
    non-orthogonality > 65  degrees                        : 0
    faces with face pyramid volume < 1e-13                 : 0
    faces with face-decomposition tet quality < 1e-15      : 0
    faces with concavity > 80  degrees                     : 0
    faces with skewness > 4   (internal) or 20  (boundary) : 0
    faces with interpolation weights (0..1)  < 0.05        : 0
    faces with volume ratio of neighbour cells < 0.01      : 0
    faces with face twist < 0.05                           : 0
    faces on cells with determinant < 0.001                : 0

Merging all points on surface that
- are used by only two boundary faces and
- make an angle with a cosine of more than 0.984808.

Removing 56627 straight edge points ...

Edge intersection testing:
    Number of edges             : 35937895
    Number of edges to retest   : 242364
    Number of intersected edges : 1006175

Undo iteration 0
----------------
Checking faces in error :
    non-orthogonality > 65  degrees                        : 0
    faces with face pyramid volume < 1e-13                 : 0
    faces with face-decomposition tet quality < 1e-15      : 0
    faces with concavity > 80  degrees                     : 0
    faces with skewness > 4   (internal) or 20  (boundary) : 0
    faces with interpolation weights (0..1)  < 0.05        : 0
    faces with volume ratio of neighbour cells < 0.01      : 0
    faces with face twist < 0.05                           : 0
    faces on cells with determinant < 0.001                : 0

Removing zero-sized patches:
    frontAndBack type patch at position 0
    lowerWall type wall at position 3
    upperWall type patch at position 4

Snapped mesh : cells:11599905  faces:35937895  points:12749917
Cells per refinement level:
    0	104860
    1	325920
    2	1163904
    3	3737160
    4	645756
    5	4456697
    6	1165608
Writing mesh to time constant
Wrote mesh in = 10.58 s.
Mesh snapped in = 216.03 s.
Checking final mesh ...
Checking faces in error :
    non-orthogonality > 65  degrees                        : 0
    faces with face pyramid volume < 1e-13                 : 0
    faces with face-decomposition tet quality < 1e-15      : 0
    faces with concavity > 80  degrees                     : 0
    faces with skewness > 4   (internal) or 20  (boundary) : 0
    faces with interpolation weights (0..1)  < 0.05        : 0
    faces with volume ratio of neighbour cells < 0.01      : 0
    faces with face twist < 0.05                           : 0
    faces on cells with determinant < 0.001                : 0
Finished meshing without any errors
Finished meshing in = 908.35 s.
End

Finalising parallel run
