/*---------------------------------------------------------------------------*\
| =========                 |                                                 |
| \\      /  F ield         | OpenFOAM: The Open Source CFD Toolbox           |
|  \\    /   O peration     | Version:  v1812                                 |
|   \\  /    A nd           | Web:      www.OpenFOAM.com                      |
|    \\/     M anipulation  |                                                 |
\*---------------------------------------------------------------------------*/
Build  : v1812 OPENFOAM=1812
Arch   : "LSB;label=32;scalar=64"
Exec   : snappyHexMesh -parallel -decomposeParDict system/decomposeParDict.40 -dict system/snappyHexMeshDict
Date   : Mar 27 2023
Time   : 15:07:08
Host   : compute-0-32.local
PID    : 77460
I/O    : uncollated
Case   : /share/storage/finzeo/Mallas/test/GTS_ofcom10
nProcs : 40
Hosts  :
(
    (compute-0-32.local 20)
    (compute-0-33.local 20)
)
Pstream initialized with:
    floatTransfer      : 0
    nProcsSimpleSum    : 0
    commsType          : nonBlocking
    polling iterations : 0
trapFpe: Floating point exception trapping enabled (FOAM_SIGFPE).
fileModificationChecking : Monitoring run-time modified files using timeStampMaster (fileModificationSkew 10)
allowSystemOperations : Allowing user-supplied system call operations

// * * * * * * * * * * * * * * * * * * * * * * * * * * * * * * * * * * * * * //
Create time

Create mesh for time = 0

Read mesh in = 0.24 s

Overall mesh bounding box  : (-7.33423 -1.524 -0.0762) (4.40057 1.524 2.0574)
Relative tolerance         : 1e-06
Absolute matching distance : 1.23105e-05

Reading refinement surfaces.
--> FOAM Warning : 
    From function Foam::refinementSurfaces::refinementSurfaces(const Foam::searchableSurfaces&, const Foam::dictionary&, Foam::label)
    in file refinementSurfaces/refinementSurfaces.C at line 376
    Reading "/share/storage/finzeo/Mallas/test/GTS_ofcom10/system/snappyHexMeshDict.castellatedMeshControls.refinementSurfaces"
    Not all entries in refinementSurfaces dictionary were used. The following entries were not used : 
6
(
floor
inlet
left
outlet
right
top
)

Read refinement surfaces in = 0.04 s

Reading refinement shells.
Refinement level according to distance to GTS-Storms-v9.stl
    level 5 for all cells within 0.015 metre.
Refinement level 1 for all cells inside refinementBox1
Refinement level 2 for all cells inside refinementBox2
Refinement level 3 for all cells inside refinementBox3
Read refinement shells in = 0 s

Setting refinement level of surface to be consistent with shells.
For geometry GTS-Storms-v9.stl detected 0 uncached triangles out of 9996
Checked shell refinement in = 0.18 s

Reading features.
Read edgeMesh GTS-Storms-v9.eMesh
    points      : 989
    edges       : 989
    boundingBox : (-2.45096 -0.161925 -0.0762) (0 0.161925 0.4508)

Refinement level according to distance to "GTS-Storms-v9.eMesh" (989 points, 989 edges).
    level 6 for all cells within 0.024 metre.
Read features in = 0.05 s


Determining initial surface intersections
-----------------------------------------

Edge intersection testing:
    Number of edges             : 602172
    Number of edges to retest   : 602172
    Number of intersected edges : 690
Calculated surface intersections in = 0.1 s

Initial mesh : cells:196560  faces:602172  points:209281
Cells per refinement level:
    0	196560

Adding patches for surface regions
----------------------------------

Patch Type                Region                        
----- ----                ------                        
gtsModel:

6     wall                gtsModel                      

Added patches in = 0 s

Edge intersection testing:
    Number of edges             : 602172
    Number of edges to retest   : 0
    Number of intersected edges : 690
Selecting decompositionMethod hierarchical [40]

Refinement phase
----------------

Found point (2.0001 0.0001 0.5002) in cell 2581 on processor 13

Feature refinement iteration 0
------------------------------

Marked for refinement due to explicit features             : 144 cells.
Determined cells to refine in = 0.05 s
Selected for feature refinement : 144 cells (out of 196560)
Edge intersection testing:
    Number of edges             : 606048
    Number of edges to retest   : 6770
    Number of intersected edges : 1092
Refined mesh in = 0.08 s
After refinement feature refinement iteration 0 : cells:197568  faces:606048  points:211281
Cells per refinement level:
    0	196416
    1	1152
Skipping balancing since max unbalance 0.0700547 is less than allowable 0.1

Feature refinement iteration 1
------------------------------

Marked for refinement due to explicit features             : 284 cells.
Determined cells to refine in = 0.06 s
Selected for feature refinement : 552 cells (out of 197568)
Edge intersection testing:
    Number of edges             : 620082
    Number of edges to retest   : 20959
    Number of intersected edges : 3694
Refined mesh in = 0.06 s
After refinement feature refinement iteration 1 : cells:201432  faces:620082  points:217852
Cells per refinement level:
    0	196148
    1	3012
    2	2272
Balanced mesh in = 0.21 s
After balancing feature refinement iteration 1 : cells:201432  faces:620082  points:217852
Cells per refinement level:
    0	196148
    1	3012
    2	2272

Feature refinement iteration 2
------------------------------

Marked for refinement due to explicit features             : 570 cells.
Determined cells to refine in = 0.09 s
Selected for feature refinement : 1332 cells (out of 201432)
Edge intersection testing:
    Number of edges             : 653334
    Number of edges to retest   : 50359
    Number of intersected edges : 8580
Refined mesh in = 0.14 s
After refinement feature refinement iteration 2 : cells:210756  faces:653334  points:233026
Cells per refinement level:
    0	195944
    1	4086
    2	6166
    3	4560
Balanced mesh in = 0.22 s
After balancing feature refinement iteration 2 : cells:210756  faces:653334  points:233026
Cells per refinement level:
    0	195944
    1	4086
    2	6166
    3	4560

Feature refinement iteration 3
------------------------------

Marked for refinement due to explicit features             : 1144 cells.
Determined cells to refine in = 0.1 s
Selected for feature refinement : 3002 cells (out of 210756)
Edge intersection testing:
    Number of edges             : 727791
    Number of edges to retest   : 116115
    Number of intersected edges : 16030
Refined mesh in = 0.13 s
After refinement feature refinement iteration 3 : cells:231770  faces:727791  points:266599
Cells per refinement level:
    0	195750
    1	5108
    2	9272
    3	12488
    4	9152
Balanced mesh in = 0.28 s
After balancing feature refinement iteration 3 : cells:231770  faces:727791  points:266599
Cells per refinement level:
    0	195750
    1	5108
    2	9272
    3	12488
    4	9152

Feature refinement iteration 4
------------------------------

Marked for refinement due to explicit features             : 2290 cells.
Determined cells to refine in = 0.11 s
Selected for feature refinement : 6318 cells (out of 231770)
Edge intersection testing:
    Number of edges             : 883674
    Number of edges to retest   : 245098
    Number of intersected edges : 35192
Refined mesh in = 0.16 s
After refinement feature refinement iteration 4 : cells:275996  faces:883674  points:336332
Cells per refinement level:
    0	195602
    1	5776
    2	12308
    3	18952
    4	25038
    5	18320
Balanced mesh in = 0.33 s
After balancing feature refinement iteration 4 : cells:275996  faces:883674  points:336332
Cells per refinement level:
    0	195602
    1	5776
    2	12308
    3	18952
    4	25038
    5	18320

Feature refinement iteration 5
------------------------------

Marked for refinement due to explicit features             : 4596 cells.
Determined cells to refine in = 0.14 s
Selected for feature refinement : 11888 cells (out of 275996)
Edge intersection testing:
    Number of edges             : 1177893
    Number of edges to retest   : 463102
    Number of intersected edges : 59658
Refined mesh in = 0.27 s
After refinement feature refinement iteration 5 : cells:359212  faces:1177893  points:468737
Cells per refinement level:
    0	195598
    1	5788
    2	11950
    3	20910
    4	37962
    5	50236
    6	36768
Balanced mesh in = 0.57 s
After balancing feature refinement iteration 5 : cells:359212  faces:1177893  points:468737
Cells per refinement level:
    0	195598
    1	5788
    2	11950
    3	20910
    4	37962
    5	50236
    6	36768

Feature refinement iteration 6
------------------------------

Marked for refinement due to explicit features             : 0 cells.
Determined cells to refine in = 0.3 s
Selected for feature refinement : 0 cells (out of 359212)
Stopping refining since too few cells selected.


Surface refinement iteration 0
------------------------------

Marked for refinement due to surface intersection          : 26186 cells.
Marked for refinement due to curvature/regions             : 8824 cells.
Determined cells to refine in = 0.03 s
Selected for refinement : 35862 cells (out of 359212)
Edge intersection testing:
    Number of edges             : 1997040
    Number of edges to retest   : 1213629
    Number of intersected edges : 128606
Refined mesh in = 0.55 s
After refinement surface refinement iteration 0 : cells:610246  faces:1997040  points:785704
Cells per refinement level:
    0	194794
    1	10590
    2	20768
    3	47838
    4	79212
    5	149684
    6	107360
Balanced mesh in = 0.89 s
After balancing surface refinement iteration 0 : cells:610246  faces:1997040  points:785704
Cells per refinement level:
    0	194794
    1	10590
    2	20768
    3	47838
    4	79212
    5	149684
    6	107360

Surface refinement iteration 1
------------------------------

Marked for refinement due to surface intersection          : 51808 cells.
Marked for refinement due to curvature/regions             : 92 cells.
Determined cells to refine in = 0.13 s
Selected for refinement : 54950 cells (out of 610246)
Edge intersection testing:
    Number of edges             : 3227940
    Number of edges to retest   : 1774158
    Number of intersected edges : 206750
Refined mesh in = 0.65 s
After refinement surface refinement iteration 1 : cells:994896  faces:3227940  points:1246995
Cells per refinement level:
    0	194604
    1	8672
    2	41714
    3	82432
    4	195370
    5	364008
    6	108096
Balanced mesh in = 1.14 s
After balancing surface refinement iteration 1 : cells:994896  faces:3227940  points:1246995
Cells per refinement level:
    0	194604
    1	8672
    2	41714
    3	82432
    4	195370
    5	364008
    6	108096

Surface refinement iteration 2
------------------------------

Marked for refinement due to surface intersection          : 100212 cells.
Marked for refinement due to curvature/regions             : 68 cells.
Determined cells to refine in = 0.17 s
Selected for refinement : 106778 cells (out of 994896)
Edge intersection testing:
    Number of edges             : 5618457
    Number of edges to retest   : 3232323
    Number of intersected edges : 357894
Refined mesh in = 0.82 s
After refinement surface refinement iteration 2 : cells:1742342  faces:5618457  points:2141968
Cells per refinement level:
    0	194382
    1	9280
    2	38676
    3	155222
    4	338826
    5	897316
    6	108640
Balanced mesh in = 1.77 s
After balancing surface refinement iteration 2 : cells:1742342  faces:5618457  points:2141968
Cells per refinement level:
    0	194382
    1	9280
    2	38676
    3	155222
    4	338826
    5	897316
    6	108640

Surface refinement iteration 3
------------------------------

Marked for refinement due to surface intersection          : 134148 cells.
Marked for refinement due to curvature/regions             : 164 cells.
Determined cells to refine in = 0.22 s
Selected for refinement : 141618 cells (out of 1742342)
Edge intersection testing:
    Number of edges             : 8790264
    Number of edges to retest   : 4214524
    Number of intersected edges : 561610
Refined mesh in = 1.48 s
After refinement surface refinement iteration 3 : cells:2733668  faces:8790264  points:3330096
Cells per refinement level:
    0	194310
    1	9342
    2	40390
    3	125246
    4	642796
    5	1611632
    6	109952
Balanced mesh in = 2.81 s
After balancing surface refinement iteration 3 : cells:2733668  faces:8790264  points:3330096
Cells per refinement level:
    0	194310
    1	9342
    2	40390
    3	125246
    4	642796
    5	1611632
    6	109952

Surface refinement iteration 4
------------------------------

Marked for refinement due to surface intersection          : 179500 cells.
Marked for refinement due to curvature/regions             : 68 cells.
Determined cells to refine in = 0.31 s
Selected for refinement : 188672 cells (out of 2733668)
Edge intersection testing:
    Number of edges             : 13020138
    Number of edges to retest   : 5518692
    Number of intersected edges : 835682
Refined mesh in = 2.28 s
After refinement surface refinement iteration 4 : cells:4054372  faces:13020138  points:4916760
Cells per refinement level:
    0	194308
    1	9334
    2	40396
    3	117338
    4	538968
    5	3043532
    6	110496
Balanced mesh in = 4.11 s
After balancing surface refinement iteration 4 : cells:4054372  faces:13020138  points:4916760
Cells per refinement level:
    0	194308
    1	9334
    2	40396
    3	117338
    4	538968
    5	3043532
    6	110496

Surface refinement iteration 5
------------------------------

Marked for refinement due to surface intersection          : 2016 cells.
Marked for refinement due to curvature/regions             : 0 cells.
Determined cells to refine in = 0.4 s
Selected for refinement : 2194 cells (out of 4054372)
Edge intersection testing:
    Number of edges             : 13069932
    Number of edges to retest   : 85002
    Number of intersected edges : 839892
Refined mesh in = 1.5 s
After refinement surface refinement iteration 5 : cells:4069730  faces:13069932  points:4935608
Cells per refinement level:
    0	194308
    1	9332
    2	40398
    3	117282
    4	538302
    5	3059612
    6	110496
Skipping balancing since max unbalance 0.0430005 is less than allowable 0.1

Surface refinement iteration 6
------------------------------

Marked for refinement due to surface intersection          : 30 cells.
Marked for refinement due to curvature/regions             : 0 cells.
Determined cells to refine in = 0.43 s
Selected for refinement : 36 cells (out of 4069730)
Edge intersection testing:
    Number of edges             : 13070676
    Number of edges to retest   : 3572
    Number of intersected edges : 839892
Refined mesh in = 1.41 s
After refinement surface refinement iteration 6 : cells:4069982  faces:13070676  points:4935850
Cells per refinement level:
    0	194308
    1	9332
    2	40396
    3	117294
    4	538304
    5	3059852
    6	110496
Skipping balancing since max unbalance 0.0437646 is less than allowable 0.1

Surface refinement iteration 7
------------------------------

Marked for refinement due to surface intersection          : 0 cells.
Marked for refinement due to curvature/regions             : 0 cells.
Determined cells to refine in = 0.41 s
Selected for refinement : 0 cells (out of 4069982)
Stopping refining since too few cells selected.


Removing mesh beyond surface intersections
------------------------------------------

Setting cellZones according to locationsInMesh:
Location : (2.0001 0.0001 0.5002)
    cellZone : none

For cellZone none found point (2.0001 0.0001 0.5002) in global region 0 out of 2 regions.
Keeping all cells containing inside points
Selected for keeping : 4069982 cells.
Edge intersection testing:
    Number of edges             : 13070676
    Number of edges to retest   : 0
    Number of intersected edges : 839892
Setting cellZones according to locationsInMesh:
Location : (2.0001 0.0001 0.5002)
    cellZone : none

For cellZone none found point (2.0001 0.0001 0.5002) in global region 0 out of 2 regions.
Keeping all cells containing inside points
Selected for keeping : 3632639 cells.
Edge intersection testing:
    Number of edges             : 11804067
    Number of edges to retest   : 546144
    Number of intersected edges : 839892

Shell refinement iteration 0
----------------------------

Marked for refinement due to distance to explicit features : 408522 cells.
Marked for refinement due to refinement shells             : 466643 cells.
Determined cells to refine in = 2.78 s
Selected for internal refinement : 923156 cells (out of 3632639)
Edge intersection testing:
    Number of edges             : 31606704
    Number of edges to retest   : 27218081
    Number of intersected edges : 1131936
Refined mesh in = 4.1 s
After refinement shell refinement iteration 0 : cells:10094731  faces:31606704  points:11418234
Cells per refinement level:
    0	116817
    1	619928
    2	66720
    3	209280
    4	510226
    5	5453463
    6	3118297
Balanced mesh in = 8.44 s
After balancing shell refinement iteration 0 : cells:10094731  faces:31606704  points:11418242
Cells per refinement level:
    0	116817
    1	619928
    2	66720
    3	209280
    4	510226
    5	5453463
    6	3118297

Shell refinement iteration 1
----------------------------

Marked for refinement due to distance to explicit features : 451369 cells.
Marked for refinement due to refinement shells             : 446197 cells.
Determined cells to refine in = 0.79 s
Selected for internal refinement : 985421 cells (out of 10094731)
Edge intersection testing:
    Number of edges             : 52517448
    Number of edges to retest   : 29697736
    Number of intersected edges : 1132240
Refined mesh in = 5.1 s
After refinement shell refinement iteration 1 : cells:16992678  faces:52517448  points:18532795
Cells per refinement level:
    0	116580
    1	394740
    2	1816672
    3	672091
    4	838505
    5	6986849
    6	6167241
Balanced mesh in = 14.2 s
After balancing shell refinement iteration 1 : cells:16992678  faces:52517448  points:18532795
Cells per refinement level:
    0	116580
    1	394740
    2	1816672
    3	672091
    4	838505
    5	6986849
    6	6167241

Shell refinement iteration 2
----------------------------

Marked for refinement due to distance to explicit features : 569017 cells.
Marked for refinement due to refinement shells             : 466521 cells.
Determined cells to refine in = 1.03 s
Selected for internal refinement : 1120694 cells (out of 16992678)
Edge intersection testing:
    Number of edges             : 76261194
    Number of edges to retest   : 30509746
    Number of intersected edges : 1132277
Refined mesh in = 7.03 s
After refinement shell refinement iteration 2 : cells:24837536  faces:76261194  points:26586879
Cells per refinement level:
    0	116567
    1	394844
    2	1350200
    3	4388099
    4	884422
    5	7070451
    6	10632953
Balanced mesh in = 21.33 s
After balancing shell refinement iteration 2 : cells:24837536  faces:76261194  points:26586879
Cells per refinement level:
    0	116567
    1	394844
    2	1350200
    3	4388099
    4	884422
    5	7070451
    6	10632953

Shell refinement iteration 3
----------------------------

Marked for refinement due to distance to explicit features : 95900 cells.
Marked for refinement due to refinement shells             : 3 cells.
Determined cells to refine in = 1.29 s
Selected for internal refinement : 112692 cells (out of 24837536)
Skipping balancing since max unbalance 0.0374762 is less than allowable 0.1
After balancing shell refinement iteration 3 : cells:24837536  faces:76261194  points:26586879
Cells per refinement level:
    0	116567
    1	394844
    2	1350200
    3	4388099
    4	884422
    5	7070451
    6	10632953
Edge intersection testing:
    Number of edges             : 78669471
    Number of edges to retest   : 4680665
    Number of intersected edges : 1132277
Refined mesh in = 5.27 s
After refinement shell refinement iteration 3 : cells:25626380  faces:78669471  points:27417477
Cells per refinement level:
    0	116564
    1	394868
    2	1350200
    3	4384610
    4	899036
    5	7080933
    6	11400169

Shell refinement iteration 4
----------------------------

Marked for refinement due to distance to explicit features : 0 cells.
Marked for refinement due to refinement shells             : 0 cells.
Determined cells to refine in = 1.2 s
Selected for internal refinement : 622 cells (out of 25626380)
Skipping balancing since max unbalance 0.0373109 is less than allowable 0.1
After balancing shell refinement iteration 4 : cells:25626380  faces:78669471  points:27417477
Cells per refinement level:
    0	116564
    1	394868
    2	1350200
    3	4384610
    4	899036
    5	7080933
    6	11400169
Edge intersection testing:
    Number of edges             : 78682545
    Number of edges to retest   : 48937
    Number of intersected edges : 1132277
Refined mesh in = 5.15 s
After refinement shell refinement iteration 4 : cells:25630734  faces:78682545  points:27421841
Cells per refinement level:
    0	116564
    1	394868
    2	1350200
    3	4384372
    4	900556
    5	7084005
    6	11400169

Shell refinement iteration 5
----------------------------

Marked for refinement due to distance to explicit features : 0 cells.
Marked for refinement due to refinement shells             : 0 cells.
Determined cells to refine in = 1.21 s
Selected for internal refinement : 6 cells (out of 25630734)
Stopping refining since too few cells selected.


Dangling coarse cells refinement iteration 0
--------------------------------------------

Determined cells to refine in = 0.03 s
Selected for refinement : 43 cells (out of 25630734)
Skipping balancing since max unbalance 0.0373206 is less than allowable 0.1
After balancing coarse cell refinement iteration 0 : cells:25630734  faces:78682545  points:27421841
Cells per refinement level:
    0	116564
    1	394868
    2	1350200
    3	4384372
    4	900556
    5	7084005
    6	11400169
Edge intersection testing:
    Number of edges             : 78683190
    Number of edges to retest   : 5220
    Number of intersected edges : 1132277
Refined mesh in = 4.84 s
After refinement coarse cell refinement iteration 0 : cells:25631035  faces:78683190  points:27421927
Cells per refinement level:
    0	116525
    1	395180
    2	1350200
    3	4384368
    4	900588
    5	7084005
    6	11400169

Dangling coarse cells refinement iteration 1
--------------------------------------------

Determined cells to refine in = 0.6 s
Selected for refinement : 0 cells (out of 25631035)
Stopping refining since too few cells selected.


Dangling coarse cells refinement iteration 0
--------------------------------------------

Determined cells to refine in = 0.03 s
Selected for refinement : 0 cells (out of 25631035)
Stopping refining since too few cells selected.


Refinement transition refinement iteration 0
--------------------------------------------

Determined cells to refine in = 0.04 s
Selected for refinement : 16 cells (out of 25631035)
Skipping balancing since max unbalance 0.037316 is less than allowable 0.1
After balancing interface cell refinement iteration 0 : cells:25631035  faces:78683190  points:27421927
Cells per refinement level:
    0	116525
    1	395180
    2	1350200
    3	4384368
    4	900588
    5	7084005
    6	11400169
Edge intersection testing:
    Number of edges             : 78683526
    Number of edges to retest   : 1680
    Number of intersected edges : 1132261
Refined mesh in = 5.04 s
After refinement interface cell refinement iteration 0 : cells:25631147  faces:78683526  points:27422023
Cells per refinement level:
    0	116525
    1	395180
    2	1350200
    3	4384368
    4	900588
    5	7083989
    6	11400297

Refinement transition refinement iteration 1
--------------------------------------------

Determined cells to refine in = 0.62 s
Selected for refinement : 0 cells (out of 25631147)
Stopping refining since too few cells selected.


Splitting mesh at surface intersections
---------------------------------------

Introducing baffles for 1132261 faces that are intersected by the surface.

Setting cellZones according to locationsInMesh:
Location : (2.0001 0.0001 0.5002)
    cellZone : none

For cellZone none found point (2.0001 0.0001 0.5002) in global region 0 out of 2 regions.
Edge intersection testing:
    Number of edges             : 79815787
    Number of edges to retest   : 8826180
    Number of intersected edges : 2249310
Created baffles in = 4.42 s


After introducing baffles : cells:25631147  faces:79815787  points:27567723
Cells per refinement level:
    0	116525
    1	395180
    2	1350200
    3	4384368
    4	900588
    5	7083989
    6	11400297

Introducing baffles to block off problem cells
----------------------------------------------

markFacesOnProblemCells : marked 927786 additional internal faces to be converted into baffles.
Analyzed problem cells in = 3.49 s


Introducing baffles to delete problem cells.

Edge intersection testing:
    Number of edges             : 80743573
    Number of edges to retest   : 2920613
    Number of intersected edges : 2249318
Created baffles in = 3.48 s


After introducing baffles : cells:25631147  faces:80743573  points:27570234
Cells per refinement level:
    0	116525
    1	395180
    2	1350200
    3	4384368
    4	900588
    5	7083989
    6	11400297
Setting cellZones according to locationsInMesh:
Location : (2.0001 0.0001 0.5002)
    cellZone : none

For cellZone none found point (2.0001 0.0001 0.5002) in global region 0 out of 449197 regions.
Edge intersection testing:
    Number of edges             : 80743573
    Number of edges to retest   : 9702961
    Number of intersected edges : 2249318

Remove unreachable sections of mesh
-----------------------------------

Keeping all cells containing points 1((2.0001 0.0001 0.5002))
Selected for keeping : 22211486 cells.
Edge intersection testing:
    Number of edges             : 68319330
    Number of edges to retest   : 0
    Number of intersected edges : 1126947
Split mesh in = 8.96 s


After subsetting : cells:22211486  faces:68319330  points:23902642
Cells per refinement level:
    0	116525
    1	395180
    2	1350200
    3	4211041
    4	822696
    5	5409944
    6	9905900

Introducing zones for interfaces
--------------------------------

Setting cellZones according to locationsInMesh:
Location : (2.0001 0.0001 0.5002)
    cellZone : none

For cellZone none found point (2.0001 0.0001 0.5002) in global region 0 out of 1 regions.
Setting faceZones according to neighbouring cellZones:

Edge intersection testing:
    Number of edges             : 68319330
    Number of edges to retest   : 0
    Number of intersected edges : 1126947

Handling cells with snap problems
---------------------------------

Introducing baffles for 1126947 faces that are intersected by the surface.

Setting cellZones according to locationsInMesh:
Location : (2.0001 0.0001 0.5002)
    cellZone : none

For cellZone none found point (2.0001 0.0001 0.5002) in global region 0 out of 1 regions.
Edge intersection testing:
    Number of edges             : 68319330
    Number of edges to retest   : 4435612
    Number of intersected edges : 1126947
Created baffles in = 7.57 s


After introducing baffles : cells:22211486  faces:68319330  points:23902642
Cells per refinement level:
    0	116525
    1	395180
    2	1350200
    3	4211041
    4	822696
    5	5409944
    6	9905900

Introducing baffles to block off problem cells
----------------------------------------------

markFacesOnProblemCells : marked 0 additional internal faces to be converted into baffles.
Analyzed problem cells in = 3.11 s


Introducing baffles to delete problem cells.

Created baffles in = 0.25 s


After introducing baffles : cells:22211486  faces:68319330  points:23902642
Cells per refinement level:
    0	116525
    1	395180
    2	1350200
    3	4211041
    4	822696
    5	5409944
    6	9905900
Setting cellZones according to locationsInMesh:
Location : (2.0001 0.0001 0.5002)
    cellZone : none

For cellZone none found point (2.0001 0.0001 0.5002) in global region 0 out of 1 regions.
Edge intersection testing:
    Number of edges             : 68319330
    Number of edges to retest   : 4435612
    Number of intersected edges : 1126947

Remove unreachable sections of mesh
-----------------------------------

Split mesh in = 4.84 s


After subsetting : cells:22211486  faces:68319330  points:23902642
Cells per refinement level:
    0	116525
    1	395180
    2	1350200
    3	4211041
    4	822696
    5	5409944
    6	9905900

Merge free-standing baffles
---------------------------

freeStandingBaffles : detected 0 free-standing baffles out of 0

Detected free-standing baffles : 0
Merged free-standing baffles in = 1.65 s


dupNonManifoldPoints : Found : 0 non-manifold points (out of 24933757)
Detected unsplittable baffles : 0

Merge refined boundary faces
----------------------------

Merging 4575 sets of faces.

Edge intersection testing:
    Number of edges             : 68313999
    Number of edges to retest   : 29476
    Number of intersected edges : 1121616

Undo iteration 0
----------------
Checking faces in error :
    non-orthogonality > 65  degrees                        : 0
    faces with face pyramid volume < 1e-13                 : 0
    faces with face-decomposition tet quality < 1e-15      : 0
    faces with concavity > 80  degrees                     : 0
    faces with skewness > 4   (internal) or 20  (boundary) : 0
    faces with interpolation weights (0..1)  < 0.02        : 0
    faces with volume ratio of neighbour cells < 0.01      : 0
    faces with face twist < 0.02                           : 0
    faces on cells with determinant < 0.001                : 0

Merging all points on surface that
- are used by only two boundary faces and
- make an angle with a cosine of more than 0.707107.

Removing 5188 straight edge points ...

Edge intersection testing:
    Number of edges             : 68313999
    Number of edges to retest   : 31289
    Number of intersected edges : 1121616

Undo iteration 0
----------------
Checking faces in error :
    non-orthogonality > 65  degrees                        : 0
    faces with face pyramid volume < 1e-13                 : 0
    faces with face-decomposition tet quality < 1e-15      : 0
    faces with concavity > 80  degrees                     : 0
    faces with skewness > 4   (internal) or 20  (boundary) : 0
    faces with interpolation weights (0..1)  < 0.02        : 0
    faces with volume ratio of neighbour cells < 0.01      : 0
    faces with face twist < 0.02                           : 0
    faces on cells with determinant < 0.001                : 0

Doing final balancing
---------------------

Found 0 zoned faces to keep together.
Found 0 separated coupled faces to keep together.
Refined mesh : cells:22211486  faces:68313999  points:23897080
Cells per refinement level:
    0	116525
    1	395180
    2	1350200
    3	4211041
    4	822696
    5	5409944
    6	9905900
Writing mesh to time 1
Wrote mesh in = 32.7 s.
Mesh refined in = 185.39 s.

Morphing phase
--------------

Duplicating 0 points on faceZones of type boundary
Snapping to features in 20 iterations ...
Constructing mesh displacer ...
Using mesh parameters 
{
    maxNonOrtho     65;
    maxBoundarySkewness 20;
    maxInternalSkewness 4;
    maxConcave      80;
    minVol          1e-13;
    minTetQuality   1e-15;
    minArea         -1;
    minTwist        0.02;
    minDeterminant  0.001;
    minFaceWeight   0.02;
    minVolRatio     0.01;
    minTriangleTwist -1;
    nSmoothScale    4;
    errorReduction  0.75;
    relaxed
    {
        maxNonOrtho     75;
    }
}


Checking initial mesh ...
Checking faces in error :
    non-orthogonality > 65  degrees                        : 0
    faces with face pyramid volume < 1e-13                 : 0
    faces with face-decomposition tet quality < 1e-15      : 0
    faces with concavity > 80  degrees                     : 0
    faces with skewness > 4   (internal) or 20  (boundary) : 0
    faces with interpolation weights (0..1)  < 0.02        : 0
    faces with volume ratio of neighbour cells < 0.01      : 0
    faces with face twist < 0.02                           : 0
    faces on cells with determinant < 0.001                : 0
Detected 0 illegal faces (concave, zero area or negative cell pyramid volume)
Checked initial mesh in = 3.48 s


Smoothing patch points ...
Smoothing iteration 0
Found 0 non-manifold point(s).

Scaling iteration 0
Moving mesh using displacement scaling : min:1  max:1
Checking faces in error :
    non-orthogonality > 65  degrees                        : 0
    faces with face pyramid volume < 1e-13                 : 0
    faces with face-decomposition tet quality < 1e-15      : 0
    faces with concavity > 80  degrees                     : 0
    faces with skewness > 4   (internal) or 20  (boundary) : 0
    faces with interpolation weights (0..1)  < 0.02        : 0
    faces with volume ratio of neighbour cells < 0.01      : 0
    faces with face twist < 0.02                           : 0
    faces on cells with determinant < 0.001                : 0
Successfully moved mesh

Smoothing iteration 1
Found 0 non-manifold point(s).

Scaling iteration 0
Moving mesh using displacement scaling : min:1  max:1
Checking faces in error :
    non-orthogonality > 65  degrees                        : 0
    faces with face pyramid volume < 1e-13                 : 0
    faces with face-decomposition tet quality < 1e-15      : 0
    faces with concavity > 80  degrees                     : 0
    faces with skewness > 4   (internal) or 20  (boundary) : 0
    faces with interpolation weights (0..1)  < 0.02        : 0
    faces with volume ratio of neighbour cells < 0.01      : 0
    faces with face twist < 0.02                           : 0
    faces on cells with determinant < 0.001                : 0
Successfully moved mesh

Smoothing iteration 2
Found 0 non-manifold point(s).

Scaling iteration 0
Moving mesh using displacement scaling : min:1  max:1
Checking faces in error :
    non-orthogonality > 65  degrees                        : 0
    faces with face pyramid volume < 1e-13                 : 0
    faces with face-decomposition tet quality < 1e-15      : 0
    faces with concavity > 80  degrees                     : 0
    faces with skewness > 4   (internal) or 20  (boundary) : 0
    faces with interpolation weights (0..1)  < 0.02        : 0
    faces with volume ratio of neighbour cells < 0.01      : 0
    faces with face twist < 0.02                           : 0
    faces on cells with determinant < 0.001                : 0
Successfully moved mesh

Patch points smoothed in = 9.78 s



Morph iteration 0
-----------------
Calculating patchDisplacement as distance to nearest surface point ...
    non-zone points : attract to nearest of all non-zone surfaces
    zone points     : attract to zone surface only

Wanted displacement : average:0.000442402 min:9.41753e-10 max:0.00146337
Calculated surface displacement in = 0.11 s


Detecting near surfaces ...
Overriding nearest with intersection of close gaps at 0 out of 1140851 points.
Overriding displacement on features :
   implicit features    : false
   explicit features    : true
   multi-patch features : false

Detected 0 baffle edges out of 2267765 edges.
Baffle points     : 0 of which attracted to :
    feature point : 0
    feature edge  : 0
    rest          : 0

--> FOAM Warning : 
    From function Foam::treeBoundBox::treeBoundBox(const Foam::UList<Foam::Vector<double> >&)
    in file meshes/treeBoundBox/treeBoundBox.C at line 65
    cannot find bounding box for zero-sized pointField, returning zero
Initially selected 10046 mesh points out of 1140851 for reverse attraction.
Selected 29476 mesh points out of 1140851 for reverse attraction.
Stringing feature edges : changed 24 points
Stringing feature edges : changed 4 points
Stringing feature edges : changed 2 points
Stringing feature edges : changed 0 points
Attraction:
    linear   : max:(0.00146337 0 0) avg:(6.6075e-06 -1.80825e-08 6.52822e-05)
    feature  : max:(0.000415644 -0.000192626 -0.00088728) avg:(3.62052e-07 1.44969e-11 -1.3085e-06)
Feature analysis : total master points :1132045 of which attracted to :
    feature point   : 6
    feature edge    : 9744
    nearest surface : 0
    rest            : 1122295

Smoothing displacement ...
Iteration 0
Iteration 10
Iteration 20
Iteration 30
Iteration 40
Iteration 50
Iteration 60
Iteration 70
Iteration 80
Iteration 90
Iteration 100
Iteration 110
Iteration 120
Iteration 130
Iteration 140
Iteration 150
Iteration 160
Iteration 170
Iteration 180
Iteration 190
Iteration 200
Iteration 210
Iteration 220
Iteration 230
Iteration 240
Iteration 250
Iteration 260
Iteration 270
Iteration 280
Iteration 290
Displacement smoothed in = 36.24 s


Moving mesh ...

Iteration 0
Moving mesh using displacement scaling : min:1  max:1
Checking faces in error :
    non-orthogonality > 65  degrees                        : 0
    faces with face pyramid volume < 1e-13                 : 0
    faces with face-decomposition tet quality < 1e-15      : 0
    faces with concavity > 80  degrees                     : 0
    faces with skewness > 4   (internal) or 20  (boundary) : 0
    faces with interpolation weights (0..1)  < 0.02        : 0
    faces with volume ratio of neighbour cells < 0.01      : 0
    faces with face twist < 0.02                           : 0
    faces on cells with determinant < 0.001                : 0
Successfully moved mesh
Moved mesh in = 2.98 s



Morph iteration 1
-----------------
Calculating patchDisplacement as distance to nearest surface point ...
    non-zone points : attract to nearest of all non-zone surfaces
    zone points     : attract to zone surface only

Wanted displacement : average:0.000421541 min:4.36856e-10 max:0.00140653
Calculated surface displacement in = 0.12 s


Detecting near surfaces ...
Overriding nearest with intersection of close gaps at 0 out of 1140851 points.
Overriding displacement on features :
   implicit features    : false
   explicit features    : true
   multi-patch features : false

Detected 0 baffle edges out of 2267765 edges.
Baffle points     : 0 of which attracted to :
    feature point : 0
    feature edge  : 0
    rest          : 0

--> FOAM Warning : 
    From function Foam::treeBoundBox::treeBoundBox(const Foam::UList<Foam::Vector<double> >&)
    in file meshes/treeBoundBox/treeBoundBox.C at line 65
    cannot find bounding box for zero-sized pointField, returning zero
Initially selected 10044 mesh points out of 1140851 for reverse attraction.
Selected 29476 mesh points out of 1140851 for reverse attraction.
Stringing feature edges : changed 28 points
Stringing feature edges : changed 3 points
Stringing feature edges : changed 2 points
Stringing feature edges : changed 1 points
Stringing feature edges : changed 0 points
Attraction:
    linear   : max:(0.00140653 0 0) avg:(6.26183e-06 -1.71694e-08 6.19514e-05)
    feature  : max:(0.000414605 -0.000182995 -0.000885062) avg:(3.54073e-07 6.89528e-11 -1.30387e-06)
Feature analysis : total master points :1132045 of which attracted to :
    feature point   : 6
    feature edge    : 9748
    nearest surface : 0
    rest            : 1122291

Smoothing displacement ...
Iteration 0
Iteration 10
Iteration 20
Iteration 30
Iteration 40
Iteration 50
Iteration 60
Iteration 70
Iteration 80
Iteration 90
Iteration 100
Iteration 110
Iteration 120
Iteration 130
Iteration 140
Iteration 150
Iteration 160
Iteration 170
Iteration 180
Iteration 190
Iteration 200
Iteration 210
Iteration 220
Iteration 230
Iteration 240
Iteration 250
Iteration 260
Iteration 270
Iteration 280
Iteration 290
Displacement smoothed in = 35.34 s


Moving mesh ...

Iteration 0
Moving mesh using displacement scaling : min:1  max:1
Checking faces in error :
    non-orthogonality > 65  degrees                        : 0
    faces with face pyramid volume < 1e-13                 : 0
    faces with face-decomposition tet quality < 1e-15      : 0
    faces with concavity > 80  degrees                     : 0
    faces with skewness > 4   (internal) or 20  (boundary) : 0
    faces with interpolation weights (0..1)  < 0.02        : 0
    faces with volume ratio of neighbour cells < 0.01      : 0
    faces with face twist < 0.02                           : 0
    faces on cells with determinant < 0.001                : 0
Successfully moved mesh
Moved mesh in = 2.95 s



Morph iteration 2
-----------------
Calculating patchDisplacement as distance to nearest surface point ...
    non-zone points : attract to nearest of all non-zone surfaces
    zone points     : attract to zone surface only

Wanted displacement : average:0.000381732 min:9.41753e-10 max:0.00129713
Calculated surface displacement in = 0.12 s


Detecting near surfaces ...
Overriding nearest with intersection of close gaps at 0 out of 1140851 points.
Overriding displacement on features :
   implicit features    : false
   explicit features    : true
   multi-patch features : false

Detected 0 baffle edges out of 2267765 edges.
Baffle points     : 0 of which attracted to :
    feature point : 0
    feature edge  : 0
    rest          : 0

--> FOAM Warning : 
    From function Foam::treeBoundBox::treeBoundBox(const Foam::UList<Foam::Vector<double> >&)
    in file meshes/treeBoundBox/treeBoundBox.C at line 65
    cannot find bounding box for zero-sized pointField, returning zero
Initially selected 10040 mesh points out of 1140851 for reverse attraction.
Selected 29472 mesh points out of 1140851 for reverse attraction.
Stringing feature edges : changed 30 points
Stringing feature edges : changed 2 points
Stringing feature edges : changed 0 points
Attraction:
    linear   : max:(0.00129713 0 0) avg:(5.6063e-06 -1.54428e-08 5.56427e-05)
    feature  : max:(0.000410459 -0.000164696 -0.000876211) avg:(3.38675e-07 -2.25707e-10 -1.2925e-06)
Feature analysis : total master points :1132045 of which attracted to :
    feature point   : 6
    feature edge    : 9746
    nearest surface : 0
    rest            : 1122293

Smoothing displacement ...
Iteration 0
Iteration 10
Iteration 20
Iteration 30
Iteration 40
Iteration 50
Iteration 60
Iteration 70
Iteration 80
Iteration 90
Iteration 100
Iteration 110
Iteration 120
Iteration 130
Iteration 140
Iteration 150
Iteration 160
Iteration 170
Iteration 180
Iteration 190
Iteration 200
Iteration 210
Iteration 220
Iteration 230
Iteration 240
Iteration 250
Iteration 260
Iteration 270
Iteration 280
Iteration 290
Displacement smoothed in = 35.27 s


Moving mesh ...

Iteration 0
Moving mesh using displacement scaling : min:1  max:1
Checking faces in error :
    non-orthogonality > 65  degrees                        : 0
    faces with face pyramid volume < 1e-13                 : 0
    faces with face-decomposition tet quality < 1e-15      : 0
    faces with concavity > 80  degrees                     : 0
    faces with skewness > 4   (internal) or 20  (boundary) : 0
    faces with interpolation weights (0..1)  < 0.02        : 0
    faces with volume ratio of neighbour cells < 0.01      : 0
    faces with face twist < 0.02                           : 0
    faces on cells with determinant < 0.001                : 0
Successfully moved mesh
Moved mesh in = 2.95 s



Morph iteration 3
-----------------
Calculating patchDisplacement as distance to nearest surface point ...
    non-zone points : attract to nearest of all non-zone surfaces
    zone points     : attract to zone surface only

Wanted displacement : average:0.000327644 min:9.41753e-10 max:0.00117328
Calculated surface displacement in = 0.11 s


Detecting near surfaces ...
Overriding nearest with intersection of close gaps at 0 out of 1140851 points.
Overriding displacement on features :
   implicit features    : false
   explicit features    : true
   multi-patch features : false

Detected 0 baffle edges out of 2267765 edges.
Baffle points     : 0 of which attracted to :
    feature point : 0
    feature edge  : 0
    rest          : 0

--> FOAM Warning : 
    From function Foam::treeBoundBox::treeBoundBox(const Foam::UList<Foam::Vector<double> >&)
    in file meshes/treeBoundBox/treeBoundBox.C at line 65
    cannot find bounding box for zero-sized pointField, returning zero
Initially selected 10044 mesh points out of 1140851 for reverse attraction.
Selected 29480 mesh points out of 1140851 for reverse attraction.
Stringing feature edges : changed 31 points
Stringing feature edges : changed 1 points
Stringing feature edges : changed 0 points
Attraction:
    linear   : max:(0.00117328 0 2.77556e-17) avg:(4.72421e-06 -1.30286e-08 4.71599e-05)
    feature  : max:(0.000401223 -0.000139991 -0.000856496) avg:(3.15854e-07 5.51352e-11 -1.26503e-06)
Feature analysis : total master points :1132045 of which attracted to :
    feature point   : 6
    feature edge    : 9746
    nearest surface : 0
    rest            : 1122293

Smoothing displacement ...
Iteration 0
Iteration 10
Iteration 20
Iteration 30
Iteration 40
Iteration 50
Iteration 60
Iteration 70
Iteration 80
Iteration 90
Iteration 100
Iteration 110
Iteration 120
Iteration 130
Iteration 140
Iteration 150
Iteration 160
Iteration 170
Iteration 180
Iteration 190
Iteration 200
Iteration 210
Iteration 220
Iteration 230
Iteration 240
Iteration 250
Iteration 260
Iteration 270
Iteration 280
Iteration 290
Displacement smoothed in = 35.33 s


Moving mesh ...

Iteration 0
Moving mesh using displacement scaling : min:1  max:1
Checking faces in error :
    non-orthogonality > 65  degrees                        : 0
    faces with face pyramid volume < 1e-13                 : 0
    faces with face-decomposition tet quality < 1e-15      : 0
    faces with concavity > 80  degrees                     : 0
    faces with skewness > 4   (internal) or 20  (boundary) : 0
    faces with interpolation weights (0..1)  < 0.02        : 0
    faces with volume ratio of neighbour cells < 0.01      : 0
    faces with face twist < 0.02                           : 0
    faces on cells with determinant < 0.001                : 0
Successfully moved mesh
Moved mesh in = 2.98 s



Morph iteration 4
-----------------
Calculating patchDisplacement as distance to nearest surface point ...
    non-zone points : attract to nearest of all non-zone surfaces
    zone points     : attract to zone surface only

Wanted displacement : average:0.00026581 min:9.41753e-10 max:0.00102266
Calculated surface displacement in = 0.11 s


Detecting near surfaces ...
Overriding nearest with intersection of close gaps at 0 out of 1140851 points.
Overriding displacement on features :
   implicit features    : false
   explicit features    : true
   multi-patch features : false

Detected 0 baffle edges out of 2267765 edges.
Baffle points     : 0 of which attracted to :
    feature point : 0
    feature edge  : 0
    rest          : 0

--> FOAM Warning : 
    From function Foam::treeBoundBox::treeBoundBox(const Foam::UList<Foam::Vector<double> >&)
    in file meshes/treeBoundBox/treeBoundBox.C at line 65
    cannot find bounding box for zero-sized pointField, returning zero
Initially selected 10032 mesh points out of 1140851 for reverse attraction.
Selected 29468 mesh points out of 1140851 for reverse attraction.
Stringing feature edges : changed 31 points
Stringing feature edges : changed 1 points
Stringing feature edges : changed 0 points
Attraction:
    linear   : max:(0.00102266 0 0) avg:(3.72982e-06 -1.02966e-08 3.75957e-05)
    feature  : max:(0.000385174 0.000111993 -0.000822236) avg:(2.86827e-07 6.03257e-11 -1.21747e-06)
Feature analysis : total master points :1132045 of which attracted to :
    feature point   : 6
    feature edge    : 9746
    nearest surface : 0
    rest            : 1122293

Smoothing displacement ...
Iteration 0
Iteration 10
Iteration 20
Iteration 30
Iteration 40
Iteration 50
Iteration 60
Iteration 70
Iteration 80
Iteration 90
Iteration 100
Iteration 110
Iteration 120
Iteration 130
Iteration 140
Iteration 150
Iteration 160
Iteration 170
Iteration 180
Iteration 190
Iteration 200
Iteration 210
Iteration 220
Iteration 230
Iteration 240
Iteration 250
Iteration 260
Iteration 270
Iteration 280
Iteration 290
Displacement smoothed in = 35.33 s


Moving mesh ...

Iteration 0
Moving mesh using displacement scaling : min:1  max:1
Checking faces in error :
    non-orthogonality > 65  degrees                        : 0
    faces with face pyramid volume < 1e-13                 : 0
    faces with face-decomposition tet quality < 1e-15      : 0
    faces with concavity > 80  degrees                     : 0
    faces with skewness > 4   (internal) or 20  (boundary) : 0
    faces with interpolation weights (0..1)  < 0.02        : 0
    faces with volume ratio of neighbour cells < 0.01      : 0
    faces with face twist < 0.02                           : 0
    faces on cells with determinant < 0.001                : 0
Successfully moved mesh
Moved mesh in = 2.95 s



Morph iteration 5
-----------------
Calculating patchDisplacement as distance to nearest surface point ...
    non-zone points : attract to nearest of all non-zone surfaces
    zone points     : attract to zone surface only

Wanted displacement : average:0.0002032 min:9.41753e-10 max:0.000856151
Calculated surface displacement in = 0.11 s


Detecting near surfaces ...
Overriding nearest with intersection of close gaps at 0 out of 1140851 points.
Overriding displacement on features :
   implicit features    : false
   explicit features    : true
   multi-patch features : false

Detected 0 baffle edges out of 2267765 edges.
Baffle points     : 0 of which attracted to :
    feature point : 0
    feature edge  : 0
    rest          : 0

--> FOAM Warning : 
    From function Foam::treeBoundBox::treeBoundBox(const Foam::UList<Foam::Vector<double> >&)
    in file meshes/treeBoundBox/treeBoundBox.C at line 65
    cannot find bounding box for zero-sized pointField, returning zero
Initially selected 10020 mesh points out of 1140851 for reverse attraction.
Selected 29441 mesh points out of 1140851 for reverse attraction.
Stringing feature edges : changed 29 points
Stringing feature edges : changed 3 points
Stringing feature edges : changed 0 points
Attraction:
    linear   : max:(0.000856151 0 0) avg:(2.74291e-06 -7.70105e-09 2.80949e-05)
    feature  : max:(0.000361101 8.39948e-05 -0.000770847) avg:(2.52595e-07 -1.53572e-11 -1.14397e-06)
Feature analysis : total master points :1132045 of which attracted to :
    feature point   : 6
    feature edge    : 9748
    nearest surface : 0
    rest            : 1122291

Smoothing displacement ...
Iteration 0
Iteration 10
Iteration 20
Iteration 30
Iteration 40
Iteration 50
Iteration 60
Iteration 70
Iteration 80
Iteration 90
Iteration 100
Iteration 110
Iteration 120
Iteration 130
Iteration 140
Iteration 150
Iteration 160
Iteration 170
Iteration 180
Iteration 190
Iteration 200
Iteration 210
Iteration 220
Iteration 230
Iteration 240
Iteration 250
Iteration 260
Iteration 270
Iteration 280
Iteration 290
Displacement smoothed in = 35.31 s


Moving mesh ...

Iteration 0
Moving mesh using displacement scaling : min:1  max:1
Checking faces in error :
    non-orthogonality > 65  degrees                        : 0
    faces with face pyramid volume < 1e-13                 : 0
    faces with face-decomposition tet quality < 1e-15      : 0
    faces with concavity > 80  degrees                     : 0
    faces with skewness > 4   (internal) or 20  (boundary) : 0
    faces with interpolation weights (0..1)  < 0.02        : 0
    faces with volume ratio of neighbour cells < 0.01      : 0
    faces with face twist < 0.02                           : 0
    faces on cells with determinant < 0.001                : 0
Successfully moved mesh
Moved mesh in = 2.98 s



Morph iteration 6
-----------------
Calculating patchDisplacement as distance to nearest surface point ...
    non-zone points : attract to nearest of all non-zone surfaces
    zone points     : attract to zone surface only

Wanted displacement : average:0.000145895 min:3.36984e-10 max:0.000686616
Calculated surface displacement in = 0.11 s


Detecting near surfaces ...
Overriding nearest with intersection of close gaps at 0 out of 1140851 points.
Overriding displacement on features :
   implicit features    : false
   explicit features    : true
   multi-patch features : false

Detected 0 baffle edges out of 2267765 edges.
Baffle points     : 0 of which attracted to :
    feature point : 0
    feature edge  : 0
    rest          : 0

--> FOAM Warning : 
    From function Foam::treeBoundBox::treeBoundBox(const Foam::UList<Foam::Vector<double> >&)
    in file meshes/treeBoundBox/treeBoundBox.C at line 65
    cannot find bounding box for zero-sized pointField, returning zero
Initially selected 9996 mesh points out of 1140851 for reverse attraction.
Selected 29398 mesh points out of 1140851 for reverse attraction.
Stringing feature edges : changed 29 points
Stringing feature edges : changed 1 points
Stringing feature edges : changed 0 points
Attraction:
    linear   : max:(0.000686616 0 0) avg:(1.86421e-06 -5.39733e-09 1.96162e-05)
    feature  : max:(0.000328602 5.87963e-05 -0.00070147) avg:(2.1676e-07 -6.66528e-12 -1.04385e-06)
Feature analysis : total master points :1132045 of which attracted to :
    feature point   : 6
    feature edge    : 9746
    nearest surface : 0
    rest            : 1122293

Smoothing displacement ...
Iteration 0
Iteration 10
Iteration 20
Iteration 30
Iteration 40
Iteration 50
Iteration 60
Iteration 70
Iteration 80
Iteration 90
Iteration 100
Iteration 110
Iteration 120
Iteration 130
Iteration 140
Iteration 150
Iteration 160
Iteration 170
Iteration 180
Iteration 190
Iteration 200
Iteration 210
Iteration 220
Iteration 230
Iteration 240
Iteration 250
Iteration 260
Iteration 270
Iteration 280
Iteration 290
Displacement smoothed in = 35.34 s


Moving mesh ...

Iteration 0
Moving mesh using displacement scaling : min:1  max:1
Checking faces in error :
    non-orthogonality > 65  degrees                        : 0
    faces with face pyramid volume < 1e-13                 : 0
    faces with face-decomposition tet quality < 1e-15      : 0
    faces with concavity > 80  degrees                     : 0
    faces with skewness > 4   (internal) or 20  (boundary) : 0
    faces with interpolation weights (0..1)  < 0.02        : 0
    faces with volume ratio of neighbour cells < 0.01      : 0
    faces with face twist < 0.02                           : 0
    faces on cells with determinant < 0.001                : 0
Successfully moved mesh
Moved mesh in = 2.99 s



Morph iteration 7
-----------------
Calculating patchDisplacement as distance to nearest surface point ...
    non-zone points : attract to nearest of all non-zone surfaces
    zone points     : attract to zone surface only

Wanted displacement : average:9.80174e-05 min:9.41753e-10 max:0.00053726
Calculated surface displacement in = 0.11 s


Detecting near surfaces ...
Overriding nearest with intersection of close gaps at 0 out of 1140851 points.
Overriding displacement on features :
   implicit features    : false
   explicit features    : true
   multi-patch features : false

Detected 0 baffle edges out of 2267765 edges.
Baffle points     : 0 of which attracted to :
    feature point : 0
    feature edge  : 0
    rest          : 0

--> FOAM Warning : 
    From function Foam::treeBoundBox::treeBoundBox(const Foam::UList<Foam::Vector<double> >&)
    in file meshes/treeBoundBox/treeBoundBox.C at line 65
    cannot find bounding box for zero-sized pointField, returning zero
Initially selected 9944 mesh points out of 1140851 for reverse attraction.
Selected 29280 mesh points out of 1140851 for reverse attraction.
Stringing feature edges : changed 28 points
Stringing feature edges : changed 0 points
Attraction:
    linear   : max:(0.00053726 0 0) avg:(1.15798e-06 -3.51663e-09 1.27651e-05)
    feature  : max:(0.000288348 3.82176e-05 -0.00061554) avg:(1.8002e-07 -6.47084e-12 -9.18013e-07)
Feature analysis : total master points :1132045 of which attracted to :
    feature point   : 6
    feature edge    : 9744
    nearest surface : 0
    rest            : 1122295

Smoothing displacement ...
Iteration 0
Iteration 10
Iteration 20
Iteration 30
Iteration 40
Iteration 50
Iteration 60
Iteration 70
Iteration 80
Iteration 90
Iteration 100
Iteration 110
Iteration 120
Iteration 130
Iteration 140
Iteration 150
Iteration 160
Iteration 170
Iteration 180
Iteration 190
Iteration 200
Iteration 210
Iteration 220
Iteration 230
Iteration 240
Iteration 250
Iteration 260
Iteration 270
Iteration 280
Iteration 290
Displacement smoothed in = 35.34 s


Moving mesh ...

Iteration 0
Moving mesh using displacement scaling : min:1  max:1
Checking faces in error :
    non-orthogonality > 65  degrees                        : 0
    faces with face pyramid volume < 1e-13                 : 0
    faces with face-decomposition tet quality < 1e-15      : 0
    faces with concavity > 80  degrees                     : 0
    faces with skewness > 4   (internal) or 20  (boundary) : 0
    faces with interpolation weights (0..1)  < 0.02        : 0
    faces with volume ratio of neighbour cells < 0.01      : 0
    faces with face twist < 0.02                           : 0
    faces on cells with determinant < 0.001                : 0
Successfully moved mesh
Moved mesh in = 2.95 s



Morph iteration 8
-----------------
Calculating patchDisplacement as distance to nearest surface point ...
    non-zone points : attract to nearest of all non-zone surfaces
    zone points     : attract to zone surface only

Wanted displacement : average:6.15007e-05 min:9.41753e-10 max:0.000420018
Calculated surface displacement in = 0.11 s


Detecting near surfaces ...
Overriding nearest with intersection of close gaps at 0 out of 1140851 points.
Overriding displacement on features :
   implicit features    : false
   explicit features    : true
   multi-patch features : false

Detected 0 baffle edges out of 2267765 edges.
Baffle points     : 0 of which attracted to :
    feature point : 0
    feature edge  : 0
    rest          : 0

--> FOAM Warning : 
    From function Foam::treeBoundBox::treeBoundBox(const Foam::UList<Foam::Vector<double> >&)
    in file meshes/treeBoundBox/treeBoundBox.C at line 65
    cannot find bounding box for zero-sized pointField, returning zero
Initially selected 9916 mesh points out of 1140851 for reverse attraction.
Selected 29214 mesh points out of 1140851 for reverse attraction.
Stringing feature edges : changed 26 points
Stringing feature edges : changed 0 points
Attraction:
    linear   : max:(0.000420018 0 0) avg:(6.45894e-07 -2.11529e-09 7.74018e-06)
    feature  : max:(5.85796e-05 0 -0.000629355) avg:(1.44626e-07 2.15509e-11 -7.73111e-07)
Feature analysis : total master points :1132045 of which attracted to :
    feature point   : 4
    feature edge    : 9746
    nearest surface : 0
    rest            : 1122295

Smoothing displacement ...
Iteration 0
Iteration 10
Iteration 20
Iteration 30
Iteration 40
Iteration 50
Iteration 60
Iteration 70
Iteration 80
Iteration 90
Iteration 100
Iteration 110
Iteration 120
Iteration 130
Iteration 140
Iteration 150
Iteration 160
Iteration 170
Iteration 180
Iteration 190
Iteration 200
Iteration 210
Iteration 220
Iteration 230
Iteration 240
Iteration 250
Iteration 260
Iteration 270
Iteration 280
Iteration 290
Displacement smoothed in = 35.37 s


Moving mesh ...

Iteration 0
Moving mesh using displacement scaling : min:1  max:1
Checking faces in error :
    non-orthogonality > 65  degrees                        : 0
    faces with face pyramid volume < 1e-13                 : 0
    faces with face-decomposition tet quality < 1e-15      : 0
    faces with concavity > 80  degrees                     : 0
    faces with skewness > 4   (internal) or 20  (boundary) : 0
    faces with interpolation weights (0..1)  < 0.02        : 0
    faces with volume ratio of neighbour cells < 0.01      : 0
    faces with face twist < 0.02                           : 0
    faces on cells with determinant < 0.001                : 0
Successfully moved mesh
Moved mesh in = 2.96 s



Morph iteration 9
-----------------
Calculating patchDisplacement as distance to nearest surface point ...
    non-zone points : attract to nearest of all non-zone surfaces
    zone points     : attract to zone surface only

Wanted displacement : average:3.63708e-05 min:6.04123e-10 max:0.000312604
Calculated surface displacement in = 0.11 s


Detecting near surfaces ...
Overriding nearest with intersection of close gaps at 0 out of 1140851 points.
Overriding displacement on features :
   implicit features    : false
   explicit features    : true
   multi-patch features : false

Detected 0 baffle edges out of 2267765 edges.
Baffle points     : 0 of which attracted to :
    feature point : 0
    feature edge  : 0
    rest          : 0

--> FOAM Warning : 
    From function Foam::treeBoundBox::treeBoundBox(const Foam::UList<Foam::Vector<double> >&)
    in file meshes/treeBoundBox/treeBoundBox.C at line 65
    cannot find bounding box for zero-sized pointField, returning zero
Initially selected 9916 mesh points out of 1140851 for reverse attraction.
Selected 29214 mesh points out of 1140851 for reverse attraction.
Stringing feature edges : changed 26 points
Stringing feature edges : changed 0 points
Attraction:
    linear   : max:(0.000312604 0 0) avg:(3.12891e-07 -1.17424e-09 4.39462e-06)
    feature  : max:(3.22188e-05 0 -0.00050191) avg:(1.11153e-07 1.11567e-13 -6.16811e-07)
Feature analysis : total master points :1132045 of which attracted to :
    feature point   : 4
    feature edge    : 9746
    nearest surface : 0
    rest            : 1122295

Smoothing displacement ...
Iteration 0
Iteration 10
Iteration 20
Iteration 30
Iteration 40
Iteration 50
Iteration 60
Iteration 70
Iteration 80
Iteration 90
Iteration 100
Iteration 110
Iteration 120
Iteration 130
Iteration 140
Iteration 150
Iteration 160
Iteration 170
Iteration 180
Iteration 190
Iteration 200
Iteration 210
Iteration 220
Iteration 230
Iteration 240
Iteration 250
Iteration 260
Iteration 270
Iteration 280
Iteration 290
Displacement smoothed in = 35.33 s


Moving mesh ...

Iteration 0
Moving mesh using displacement scaling : min:1  max:1
Checking faces in error :
    non-orthogonality > 65  degrees                        : 0
    faces with face pyramid volume < 1e-13                 : 0
    faces with face-decomposition tet quality < 1e-15      : 0
    faces with concavity > 80  degrees                     : 0
    faces with skewness > 4   (internal) or 20  (boundary) : 0
    faces with interpolation weights (0..1)  < 0.02        : 0
    faces with volume ratio of neighbour cells < 0.01      : 0
    faces with face twist < 0.02                           : 0
    faces on cells with determinant < 0.001                : 0
Successfully moved mesh
Moved mesh in = 2.95 s



Morph iteration 10
-----------------
Calculating patchDisplacement as distance to nearest surface point ...
    non-zone points : attract to nearest of all non-zone surfaces
    zone points     : attract to zone surface only

Wanted displacement : average:2.05792e-05 min:9.68627e-11 max:0.000252018
Calculated surface displacement in = 0.11 s


Detecting near surfaces ...
Overriding nearest with intersection of close gaps at 0 out of 1140851 points.
Overriding displacement on features :
   implicit features    : false
   explicit features    : true
   multi-patch features : false

Detected 0 baffle edges out of 2267765 edges.
Baffle points     : 0 of which attracted to :
    feature point : 0
    feature edge  : 0
    rest          : 0

--> FOAM Warning : 
    From function Foam::treeBoundBox::treeBoundBox(const Foam::UList<Foam::Vector<double> >&)
    in file meshes/treeBoundBox/treeBoundBox.C at line 65
    cannot find bounding box for zero-sized pointField, returning zero
Initially selected 9916 mesh points out of 1140851 for reverse attraction.
Selected 29214 mesh points out of 1140851 for reverse attraction.
Stringing feature edges : changed 26 points
Stringing feature edges : changed 0 points
Attraction:
    linear   : max:(-0.000104785 8.56638e-10 -0.000229201) avg:(1.22021e-07 -5.91388e-10 2.36981e-06)
    feature  : max:(1.61094e-05 0 -0.000376433) avg:(8.10984e-08 -1.76118e-13 -4.62441e-07)
Feature analysis : total master points :1132045 of which attracted to :
    feature point   : 4
    feature edge    : 9746
    nearest surface : 0
    rest            : 1122295

Smoothing displacement ...
Iteration 0
Iteration 10
Iteration 20
Iteration 30
Iteration 40
Iteration 50
Iteration 60
Iteration 70
Iteration 80
Iteration 90
Iteration 100
Iteration 110
Iteration 120
Iteration 130
Iteration 140
Iteration 150
Iteration 160
Iteration 170
Iteration 180
Iteration 190
Iteration 200
Iteration 210
Iteration 220
Iteration 230
Iteration 240
Iteration 250
Iteration 260
Iteration 270
Iteration 280
Iteration 290
Displacement smoothed in = 35.36 s


Moving mesh ...

Iteration 0
Moving mesh using displacement scaling : min:1  max:1
Checking faces in error :
    non-orthogonality > 65  degrees                        : 0
    faces with face pyramid volume < 1e-13                 : 0
    faces with face-decomposition tet quality < 1e-15      : 0
    faces with concavity > 80  degrees                     : 0
    faces with skewness > 4   (internal) or 20  (boundary) : 0
    faces with interpolation weights (0..1)  < 0.02        : 0
    faces with volume ratio of neighbour cells < 0.01      : 0
    faces with face twist < 0.02                           : 0
    faces on cells with determinant < 0.001                : 0
Successfully moved mesh
Moved mesh in = 2.95 s



Morph iteration 11
-----------------
Calculating patchDisplacement as distance to nearest surface point ...
    non-zone points : attract to nearest of all non-zone surfaces
    zone points     : attract to zone surface only

Wanted displacement : average:1.11205e-05 min:3.35548e-10 max:0.000208969
Calculated surface displacement in = 0.11 s


Detecting near surfaces ...
Overriding nearest with intersection of close gaps at 0 out of 1140851 points.
Overriding displacement on features :
   implicit features    : false
   explicit features    : true
   multi-patch features : false

Detected 0 baffle edges out of 2267765 edges.
Baffle points     : 0 of which attracted to :
    feature point : 0
    feature edge  : 0
    rest          : 0

--> FOAM Warning : 
    From function Foam::treeBoundBox::treeBoundBox(const Foam::UList<Foam::Vector<double> >&)
    in file meshes/treeBoundBox/treeBoundBox.C at line 65
    cannot find bounding box for zero-sized pointField, returning zero
Initially selected 9916 mesh points out of 1140851 for reverse attraction.
Selected 29214 mesh points out of 1140851 for reverse attraction.
Stringing feature edges : changed 26 points
Stringing feature edges : changed 0 points
Attraction:
    linear   : max:(-8.68863e-05 7.10311e-10 -0.00019005) avg:(2.89607e-08 -2.7122e-10 1.24694e-06)
    feature  : max:(0.000178841 -1.86175e-05 -0.00024635) avg:(5.55016e-08 -2.78154e-13 -3.22121e-07)
Feature analysis : total master points :1132045 of which attracted to :
    feature point   : 4
    feature edge    : 9746
    nearest surface : 0
    rest            : 1122295

Smoothing displacement ...
Iteration 0
Iteration 10
Iteration 20
Iteration 30
Iteration 40
Iteration 50
Iteration 60
Iteration 70
Iteration 80
Iteration 90
Iteration 100
Iteration 110
Iteration 120
Iteration 130
Iteration 140
Iteration 150
Iteration 160
Iteration 170
Iteration 180
Iteration 190
Iteration 200
Iteration 210
Iteration 220
Iteration 230
Iteration 240
Iteration 250
Iteration 260
Iteration 270
Iteration 280
Iteration 290
Displacement smoothed in = 35.24 s


Moving mesh ...

Iteration 0
Moving mesh using displacement scaling : min:1  max:1
Checking faces in error :
    non-orthogonality > 65  degrees                        : 0
    faces with face pyramid volume < 1e-13                 : 0
    faces with face-decomposition tet quality < 1e-15      : 4
    faces with concavity > 80  degrees                     : 0
    faces with skewness > 4   (internal) or 20  (boundary) : 0
    faces with interpolation weights (0..1)  < 0.02        : 0
    faces with volume ratio of neighbour cells < 0.01      : 0
    faces with face twist < 0.02                           : 0
    faces on cells with determinant < 0.001                : 0

Iteration 1
Moving mesh using displacement scaling : min:0.75  max:1
Checking faces in error :
    non-orthogonality > 65  degrees                        : 0
    faces with face pyramid volume < 1e-13                 : 0
    faces with face-decomposition tet quality < 1e-15      : 0
    faces with concavity > 80  degrees                     : 0
    faces with skewness > 4   (internal) or 20  (boundary) : 0
    faces with interpolation weights (0..1)  < 0.02        : 0
    faces with volume ratio of neighbour cells < 0.01      : 0
    faces with face twist < 0.02                           : 0
    faces on cells with determinant < 0.001                : 0
Successfully moved mesh
Moved mesh in = 4.42 s



Morph iteration 12
-----------------
Calculating patchDisplacement as distance to nearest surface point ...
    non-zone points : attract to nearest of all non-zone surfaces
    zone points     : attract to zone surface only

Wanted displacement : average:5.9068e-06 min:4.22975e-14 max:0.000164822
Calculated surface displacement in = 0.11 s


Detecting near surfaces ...
Overriding nearest with intersection of close gaps at 0 out of 1140851 points.
Overriding displacement on features :
   implicit features    : false
   explicit features    : true
   multi-patch features : false

Detected 0 baffle edges out of 2267765 edges.
Baffle points     : 0 of which attracted to :
    feature point : 0
    feature edge  : 0
    rest          : 0

--> FOAM Warning : 
    From function Foam::treeBoundBox::treeBoundBox(const Foam::UList<Foam::Vector<double> >&)
    in file meshes/treeBoundBox/treeBoundBox.C at line 65
    cannot find bounding box for zero-sized pointField, returning zero
Initially selected 9916 mesh points out of 1140851 for reverse attraction.
Selected 29214 mesh points out of 1140851 for reverse attraction.
Stringing feature edges : changed 26 points
Stringing feature edges : changed 0 points
Attraction:
    linear   : max:(-6.85306e-05 5.6025e-10 -0.0001499) avg:(-6.17078e-09 -1.12011e-10 6.61548e-07)
    feature  : max:(0.000146583 -1.57974e-05 -0.000202007) avg:(3.51266e-08 -2.53604e-13 -2.05594e-07)
Feature analysis : total master points :1132045 of which attracted to :
    feature point   : 4
    feature edge    : 9746
    nearest surface : 0
    rest            : 1122295

Smoothing displacement ...
Iteration 0
Iteration 10
Iteration 20
Iteration 30
Iteration 40
Iteration 50
Iteration 60
Iteration 70
Iteration 80
Iteration 90
Iteration 100
Iteration 110
Iteration 120
Iteration 130
Iteration 140
Iteration 150
Iteration 160
Iteration 170
Iteration 180
Iteration 190
Iteration 200
Iteration 210
Iteration 220
Iteration 230
Iteration 240
Iteration 250
Iteration 260
Iteration 270
Iteration 280
Iteration 290
Displacement smoothed in = 35.24 s


Moving mesh ...

Iteration 0
Moving mesh using displacement scaling : min:1  max:1
Checking faces in error :
    non-orthogonality > 65  degrees                        : 0
    faces with face pyramid volume < 1e-13                 : 0
    faces with face-decomposition tet quality < 1e-15      : 4
    faces with concavity > 80  degrees                     : 0
    faces with skewness > 4   (internal) or 20  (boundary) : 0
    faces with interpolation weights (0..1)  < 0.02        : 0
    faces with volume ratio of neighbour cells < 0.01      : 0
    faces with face twist < 0.02                           : 0
    faces on cells with determinant < 0.001                : 0

Iteration 1
Moving mesh using displacement scaling : min:0.75  max:1
Checking faces in error :
    non-orthogonality > 65  degrees                        : 0
    faces with face pyramid volume < 1e-13                 : 0
    faces with face-decomposition tet quality < 1e-15      : 4
    faces with concavity > 80  degrees                     : 0
    faces with skewness > 4   (internal) or 20  (boundary) : 0
    faces with interpolation weights (0..1)  < 0.02        : 0
    faces with volume ratio of neighbour cells < 0.01      : 0
    faces with face twist < 0.02                           : 0
    faces on cells with determinant < 0.001                : 0

Iteration 2
Moving mesh using displacement scaling : min:0.5625  max:1
Checking faces in error :
    non-orthogonality > 65  degrees                        : 0
    faces with face pyramid volume < 1e-13                 : 0
    faces with face-decomposition tet quality < 1e-15      : 4
    faces with concavity > 80  degrees                     : 0
    faces with skewness > 4   (internal) or 20  (boundary) : 0
    faces with interpolation weights (0..1)  < 0.02        : 0
    faces with volume ratio of neighbour cells < 0.01      : 0
    faces with face twist < 0.02                           : 0
    faces on cells with determinant < 0.001                : 0

Iteration 3
Moving mesh using displacement scaling : min:0.421875  max:1
Checking faces in error :
    non-orthogonality > 65  degrees                        : 0
    faces with face pyramid volume < 1e-13                 : 0
    faces with face-decomposition tet quality < 1e-15      : 4
    faces with concavity > 80  degrees                     : 0
    faces with skewness > 4   (internal) or 20  (boundary) : 0
    faces with interpolation weights (0..1)  < 0.02        : 0
    faces with volume ratio of neighbour cells < 0.01      : 0
    faces with face twist < 0.02                           : 0
    faces on cells with determinant < 0.001                : 0

Iteration 4
Moving mesh using displacement scaling : min:0.316406  max:1
Checking faces in error :
    non-orthogonality > 65  degrees                        : 0
    faces with face pyramid volume < 1e-13                 : 0
    faces with face-decomposition tet quality < 1e-15      : 4
    faces with concavity > 80  degrees                     : 0
    faces with skewness > 4   (internal) or 20  (boundary) : 0
    faces with interpolation weights (0..1)  < 0.02        : 0
    faces with volume ratio of neighbour cells < 0.01      : 0
    faces with face twist < 0.02                           : 0
    faces on cells with determinant < 0.001                : 0

Iteration 5
Displacement scaling for error reduction set to 0.
Moving mesh using displacement scaling : min:0.237305  max:1
Checking faces in error :
    non-orthogonality > 65  degrees                        : 0
    faces with face pyramid volume < 1e-13                 : 0
    faces with face-decomposition tet quality < 1e-15      : 4
    faces with concavity > 80  degrees                     : 0
    faces with skewness > 4   (internal) or 20  (boundary) : 0
    faces with interpolation weights (0..1)  < 0.02        : 0
    faces with volume ratio of neighbour cells < 0.01      : 0
    faces with face twist < 0.02                           : 0
    faces on cells with determinant < 0.001                : 0

Iteration 6
Moving mesh using displacement scaling : min:0  max:1
Checking faces in error :
    non-orthogonality > 65  degrees                        : 0
    faces with face pyramid volume < 1e-13                 : 0
    faces with face-decomposition tet quality < 1e-15      : 0
    faces with concavity > 80  degrees                     : 0
    faces with skewness > 4   (internal) or 20  (boundary) : 0
    faces with interpolation weights (0..1)  < 0.02        : 0
    faces with volume ratio of neighbour cells < 0.01      : 0
    faces with face twist < 0.02                           : 0
    faces on cells with determinant < 0.001                : 0
Successfully moved mesh
Moved mesh in = 10.98 s



Morph iteration 13
-----------------
Calculating patchDisplacement as distance to nearest surface point ...
    non-zone points : attract to nearest of all non-zone surfaces
    zone points     : attract to zone surface only

Wanted displacement : average:3.22086e-06 min:1.78599e-11 max:0.000122676
Calculated surface displacement in = 0.1 s


Detecting near surfaces ...
Overriding nearest with intersection of close gaps at 0 out of 1140851 points.
Overriding displacement on features :
   implicit features    : false
   explicit features    : true
   multi-patch features : false

Detected 0 baffle edges out of 2267765 edges.
Baffle points     : 0 of which attracted to :
    feature point : 0
    feature edge  : 0
    rest          : 0

--> FOAM Warning : 
    From function Foam::treeBoundBox::treeBoundBox(const Foam::UList<Foam::Vector<double> >&)
    in file meshes/treeBoundBox/treeBoundBox.C at line 65
    cannot find bounding box for zero-sized pointField, returning zero
Initially selected 9916 mesh points out of 1140851 for reverse attraction.
Selected 29214 mesh points out of 1140851 for reverse attraction.
Stringing feature edges : changed 26 points
Stringing feature edges : changed 0 points
Attraction:
    linear   : max:(-5.10069e-05 4.16991e-10 -0.00011157) avg:(-1.29323e-08 -4.29282e-11 3.58864e-07)
    feature  : max:(0.000115589 -1.26802e-05 -0.000159333) avg:(2.02165e-08 -1.56036e-13 -1.18131e-07)
Feature analysis : total master points :1132045 of which attracted to :
    feature point   : 4
    feature edge    : 9746
    nearest surface : 0
    rest            : 1122295

Smoothing displacement ...
Iteration 0
Iteration 10
Iteration 20
Iteration 30
Iteration 40
Iteration 50
Iteration 60
Iteration 70
Iteration 80
Iteration 90
Iteration 100
Iteration 110
Iteration 120
Iteration 130
Iteration 140
Iteration 150
Iteration 160
Iteration 170
Iteration 180
Iteration 190
Iteration 200
Iteration 210
Iteration 220
Iteration 230
Iteration 240
Iteration 250
Iteration 260
Iteration 270
Iteration 280
Iteration 290
Displacement smoothed in = 35.29 s


Moving mesh ...

Iteration 0
Moving mesh using displacement scaling : min:1  max:1
Checking faces in error :
    non-orthogonality > 65  degrees                        : 0
    faces with face pyramid volume < 1e-13                 : 0
    faces with face-decomposition tet quality < 1e-15      : 4
    faces with concavity > 80  degrees                     : 0
    faces with skewness > 4   (internal) or 20  (boundary) : 0
    faces with interpolation weights (0..1)  < 0.02        : 0
    faces with volume ratio of neighbour cells < 0.01      : 0
    faces with face twist < 0.02                           : 0
    faces on cells with determinant < 0.001                : 0

Iteration 1
Moving mesh using displacement scaling : min:0.75  max:1
Checking faces in error :
    non-orthogonality > 65  degrees                        : 0
    faces with face pyramid volume < 1e-13                 : 0
    faces with face-decomposition tet quality < 1e-15      : 4
    faces with concavity > 80  degrees                     : 0
    faces with skewness > 4   (internal) or 20  (boundary) : 0
    faces with interpolation weights (0..1)  < 0.02        : 0
    faces with volume ratio of neighbour cells < 0.01      : 0
    faces with face twist < 0.02                           : 0
    faces on cells with determinant < 0.001                : 0

Iteration 2
Moving mesh using displacement scaling : min:0.5625  max:1
Checking faces in error :
    non-orthogonality > 65  degrees                        : 0
    faces with face pyramid volume < 1e-13                 : 0
    faces with face-decomposition tet quality < 1e-15      : 4
    faces with concavity > 80  degrees                     : 0
    faces with skewness > 4   (internal) or 20  (boundary) : 0
[...]
    faces with concavity > 80  degrees                     : 0
    faces with skewness > 4   (internal) or 20  (boundary) : 0
    faces with interpolation weights (0..1)  < 0.02        : 0
    faces with volume ratio of neighbour cells < 0.01      : 0
    faces with face twist < 0.02                           : 0
    faces on cells with determinant < 0.001                : 0

Iteration 4
Moving mesh using displacement scaling : min:0.316406  max:1
Checking faces in error :
    non-orthogonality > 65  degrees                        : 0
    faces with face pyramid volume < 1e-13                 : 0
    faces with face-decomposition tet quality < 1e-15      : 6
    faces with concavity > 80  degrees                     : 0
    faces with skewness > 4   (internal) or 20  (boundary) : 0
    faces with interpolation weights (0..1)  < 0.02        : 0
    faces with volume ratio of neighbour cells < 0.01      : 0
    faces with face twist < 0.02                           : 0
    faces on cells with determinant < 0.001                : 0

Iteration 5
Displacement scaling for error reduction set to 0.
Moving mesh using displacement scaling : min:0.237305  max:1
Checking faces in error :
    non-orthogonality > 65  degrees                        : 0
    faces with face pyramid volume < 1e-13                 : 0
    faces with face-decomposition tet quality < 1e-15      : 6
    faces with concavity > 80  degrees                     : 0
    faces with skewness > 4   (internal) or 20  (boundary) : 0
    faces with interpolation weights (0..1)  < 0.02        : 0
    faces with volume ratio of neighbour cells < 0.01      : 0
    faces with face twist < 0.02                           : 0
    faces on cells with determinant < 0.001                : 0

Iteration 6
Moving mesh using displacement scaling : min:0  max:1
Checking faces in error :
    non-orthogonality > 65  degrees                        : 0
    faces with face pyramid volume < 1e-13                 : 0
    faces with face-decomposition tet quality < 1e-15      : 0
    faces with concavity > 80  degrees                     : 0
    faces with skewness > 4   (internal) or 20  (boundary) : 0
    faces with interpolation weights (0..1)  < 0.02        : 0
    faces with volume ratio of neighbour cells < 0.01      : 0
    faces with face twist < 0.02                           : 0
    faces on cells with determinant < 0.001                : 0
Successfully moved mesh
Moved mesh in = 10.98 s



Morph iteration 18
-----------------
Calculating patchDisplacement as distance to nearest surface point ...
    non-zone points : attract to nearest of all non-zone surfaces
    zone points     : attract to zone surface only

Wanted displacement : average:3.33438e-08 min:2.69119e-14 max:6.99015e-05
Calculated surface displacement in = 0.1 s


Detecting near surfaces ...
Overriding nearest with intersection of close gaps at 0 out of 1140851 points.
Overriding displacement on features :
   implicit features    : false
   explicit features    : true
   multi-patch features : false

Detected 0 baffle edges out of 2267765 edges.
Baffle points     : 0 of which attracted to :
    feature point : 0
    feature edge  : 0
    rest          : 0

--> FOAM Warning : 
    From function Foam::treeBoundBox::treeBoundBox(const Foam::UList<Foam::Vector<double> >&)
    in file meshes/treeBoundBox/treeBoundBox.C at line 65
    cannot find bounding box for zero-sized pointField, returning zero
Initially selected 9916 mesh points out of 1140851 for reverse attraction.
Selected 29214 mesh points out of 1140851 for reverse attraction.
Stringing feature edges : changed 10 points
Stringing feature edges : changed 0 points
Attraction:
    linear   : max:(5.31519e-05 4.53993e-05 0) avg:(-1.71523e-10 -5.65556e-12 4.26389e-09)
    feature  : max:(-1.51325e-07 -6.27482e-08 3.56329e-05) avg:(2.58724e-10 -1.9716e-13 -2.17829e-10)
Feature analysis : total master points :1132045 of which attracted to :
    feature point   : 4
    feature edge    : 9746
    nearest surface : 0
    rest            : 1122295

Smoothing displacement ...
Iteration 0
Iteration 10
Iteration 20
Iteration 30
Iteration 40
Iteration 50
Iteration 60
Iteration 70
Iteration 80
Iteration 90
Iteration 100
Iteration 110
Iteration 120
Iteration 130
Iteration 140
Iteration 150
Iteration 160
Iteration 170
Iteration 180
Iteration 190
Iteration 200
Iteration 210
Iteration 220
Iteration 230
Iteration 240
Iteration 250
Iteration 260
Iteration 270
Iteration 280
Iteration 290
Displacement smoothed in = 35.24 s


Moving mesh ...

Iteration 0
Moving mesh using displacement scaling : min:1  max:1
Checking faces in error :
    non-orthogonality > 65  degrees                        : 0
    faces with face pyramid volume < 1e-13                 : 0
    faces with face-decomposition tet quality < 1e-15      : 8
    faces with concavity > 80  degrees                     : 0
    faces with skewness > 4   (internal) or 20  (boundary) : 0
    faces with interpolation weights (0..1)  < 0.02        : 0
    faces with volume ratio of neighbour cells < 0.01      : 0
    faces with face twist < 0.02                           : 0
    faces on cells with determinant < 0.001                : 0

Iteration 1
Moving mesh using displacement scaling : min:0.75  max:1
Checking faces in error :
    non-orthogonality > 65  degrees                        : 0
    faces with face pyramid volume < 1e-13                 : 0
    faces with face-decomposition tet quality < 1e-15      : 6
    faces with concavity > 80  degrees                     : 0
    faces with skewness > 4   (internal) or 20  (boundary) : 0
    faces with interpolation weights (0..1)  < 0.02        : 0
    faces with volume ratio of neighbour cells < 0.01      : 0
    faces with face twist < 0.02                           : 0
    faces on cells with determinant < 0.001                : 0

Iteration 2
Moving mesh using displacement scaling : min:0.5625  max:1
Checking faces in error :
    non-orthogonality > 65  degrees                        : 0
    faces with face pyramid volume < 1e-13                 : 0
    faces with face-decomposition tet quality < 1e-15      : 6
    faces with concavity > 80  degrees                     : 0
    faces with skewness > 4   (internal) or 20  (boundary) : 0
    faces with interpolation weights (0..1)  < 0.02        : 0
    faces with volume ratio of neighbour cells < 0.01      : 0
    faces with face twist < 0.02                           : 0
    faces on cells with determinant < 0.001                : 0

Iteration 3
Moving mesh using displacement scaling : min:0.421875  max:1
Checking faces in error :
    non-orthogonality > 65  degrees                        : 0
    faces with face pyramid volume < 1e-13                 : 0
    faces with face-decomposition tet quality < 1e-15      : 6
    faces with concavity > 80  degrees                     : 0
    faces with skewness > 4   (internal) or 20  (boundary) : 0
    faces with interpolation weights (0..1)  < 0.02        : 0
    faces with volume ratio of neighbour cells < 0.01      : 0
    faces with face twist < 0.02                           : 0
    faces on cells with determinant < 0.001                : 0

Iteration 4
Moving mesh using displacement scaling : min:0.316406  max:1
Checking faces in error :
    non-orthogonality > 65  degrees                        : 0
    faces with face pyramid volume < 1e-13                 : 0
    faces with face-decomposition tet quality < 1e-15      : 6
    faces with concavity > 80  degrees                     : 0
    faces with skewness > 4   (internal) or 20  (boundary) : 0
    faces with interpolation weights (0..1)  < 0.02        : 0
    faces with volume ratio of neighbour cells < 0.01      : 0
    faces with face twist < 0.02                           : 0
    faces on cells with determinant < 0.001                : 0

Iteration 5
Displacement scaling for error reduction set to 0.
Moving mesh using displacement scaling : min:0.237305  max:1
Checking faces in error :
    non-orthogonality > 65  degrees                        : 0
    faces with face pyramid volume < 1e-13                 : 0
    faces with face-decomposition tet quality < 1e-15      : 6
    faces with concavity > 80  degrees                     : 0
    faces with skewness > 4   (internal) or 20  (boundary) : 0
    faces with interpolation weights (0..1)  < 0.02        : 0
    faces with volume ratio of neighbour cells < 0.01      : 0
    faces with face twist < 0.02                           : 0
    faces on cells with determinant < 0.001                : 0

Iteration 6
Moving mesh using displacement scaling : min:0  max:1
Checking faces in error :
    non-orthogonality > 65  degrees                        : 0
    faces with face pyramid volume < 1e-13                 : 0
    faces with face-decomposition tet quality < 1e-15      : 0
    faces with concavity > 80  degrees                     : 0
    faces with skewness > 4   (internal) or 20  (boundary) : 0
    faces with interpolation weights (0..1)  < 0.02        : 0
    faces with volume ratio of neighbour cells < 0.01      : 0
    faces with face twist < 0.02                           : 0
    faces on cells with determinant < 0.001                : 0
Successfully moved mesh
Moved mesh in = 11.15 s



Morph iteration 19
-----------------
Calculating patchDisplacement as distance to nearest surface point ...
    non-zone points : attract to nearest of all non-zone surfaces
    zone points     : attract to zone surface only

Wanted displacement : average:6.4359e-09 min:3.4721e-16 max:6.99015e-05
Calculated surface displacement in = 0.11 s


Detecting near surfaces ...
Overriding nearest with intersection of close gaps at 0 out of 1140851 points.
Overriding displacement on features :
   implicit features    : false
   explicit features    : true
   multi-patch features : false

Detected 0 baffle edges out of 2267765 edges.
Baffle points     : 0 of which attracted to :
    feature point : 0
    feature edge  : 0
    rest          : 0

--> FOAM Warning : 
    From function Foam::treeBoundBox::treeBoundBox(const Foam::UList<Foam::Vector<double> >&)
    in file meshes/treeBoundBox/treeBoundBox.C at line 65
    cannot find bounding box for zero-sized pointField, returning zero
Initially selected 9916 mesh points out of 1140851 for reverse attraction.
Selected 29214 mesh points out of 1140851 for reverse attraction.
Stringing feature edges : changed 10 points
Stringing feature edges : changed 0 points
Attraction:
    linear   : max:(5.31519e-05 4.53993e-05 0) avg:(-1.15564e-10 -1.61456e-12 7.16602e-10)
    feature  : max:(4.0483e-07 -1.64932e-06 1.11497e-05) avg:(1.75439e-10 -2.76212e-14 5.50678e-11)
Feature analysis : total master points :1132045 of which attracted to :
    feature point   : 4
    feature edge    : 9746
    nearest surface : 0
    rest            : 1122295

Smoothing displacement ...
Iteration 0
Iteration 10
Iteration 20
Iteration 30
Iteration 40
Iteration 50
Iteration 60
Iteration 70
Iteration 80
Iteration 90
Iteration 100
Iteration 110
Iteration 120
Iteration 130
Iteration 140
Iteration 150
Iteration 160
Iteration 170
Iteration 180
Iteration 190
Iteration 200
Iteration 210
Iteration 220
Iteration 230
Iteration 240
Iteration 250
Iteration 260
Iteration 270
Iteration 280
Iteration 290
Displacement smoothed in = 34.47 s


Moving mesh ...

Iteration 0
Moving mesh using displacement scaling : min:1  max:1
Checking faces in error :
    non-orthogonality > 65  degrees                        : 0
    faces with face pyramid volume < 1e-13                 : 0
    faces with face-decomposition tet quality < 1e-15      : 8
    faces with concavity > 80  degrees                     : 0
    faces with skewness > 4   (internal) or 20  (boundary) : 0
    faces with interpolation weights (0..1)  < 0.02        : 0
    faces with volume ratio of neighbour cells < 0.01      : 0
    faces with face twist < 0.02                           : 0
    faces on cells with determinant < 0.001                : 0

Iteration 1
Moving mesh using displacement scaling : min:0.75  max:1
Checking faces in error :
    non-orthogonality > 65  degrees                        : 0
    faces with face pyramid volume < 1e-13                 : 0
    faces with face-decomposition tet quality < 1e-15      : 8
    faces with concavity > 80  degrees                     : 0
    faces with skewness > 4   (internal) or 20  (boundary) : 0
    faces with interpolation weights (0..1)  < 0.02        : 0
    faces with volume ratio of neighbour cells < 0.01      : 0
    faces with face twist < 0.02                           : 0
    faces on cells with determinant < 0.001                : 0

Iteration 2
Moving mesh using displacement scaling : min:0.5625  max:1
Checking faces in error :
    non-orthogonality > 65  degrees                        : 0
    faces with face pyramid volume < 1e-13                 : 0
    faces with face-decomposition tet quality < 1e-15      : 7
    faces with concavity > 80  degrees                     : 0
    faces with skewness > 4   (internal) or 20  (boundary) : 0
    faces with interpolation weights (0..1)  < 0.02        : 0
    faces with volume ratio of neighbour cells < 0.01      : 0
    faces with face twist < 0.02                           : 0
    faces on cells with determinant < 0.001                : 0

Iteration 3
Moving mesh using displacement scaling : min:0.421875  max:1
Checking faces in error :
    non-orthogonality > 65  degrees                        : 0
    faces with face pyramid volume < 1e-13                 : 0
    faces with face-decomposition tet quality < 1e-15      : 6
    faces with concavity > 80  degrees                     : 0
    faces with skewness > 4   (internal) or 20  (boundary) : 0
    faces with interpolation weights (0..1)  < 0.02        : 0
    faces with volume ratio of neighbour cells < 0.01      : 0
    faces with face twist < 0.02                           : 0
    faces on cells with determinant < 0.001                : 0

Iteration 4
Moving mesh using displacement scaling : min:0.316406  max:1
Checking faces in error :
    non-orthogonality > 65  degrees                        : 0
    faces with face pyramid volume < 1e-13                 : 0
    faces with face-decomposition tet quality < 1e-15      : 6
    faces with concavity > 80  degrees                     : 0
    faces with skewness > 4   (internal) or 20  (boundary) : 0
    faces with interpolation weights (0..1)  < 0.02        : 0
    faces with volume ratio of neighbour cells < 0.01      : 0
    faces with face twist < 0.02                           : 0
    faces on cells with determinant < 0.001                : 0

Iteration 5
Displacement scaling for error reduction set to 0.
Moving mesh using displacement scaling : min:0.237305  max:1
Checking faces in error :
    non-orthogonality > 65  degrees                        : 0
    faces with face pyramid volume < 1e-13                 : 0
    faces with face-decomposition tet quality < 1e-15      : 6
    faces with concavity > 80  degrees                     : 0
    faces with skewness > 4   (internal) or 20  (boundary) : 0
    faces with interpolation weights (0..1)  < 0.02        : 0
    faces with volume ratio of neighbour cells < 0.01      : 0
    faces with face twist < 0.02                           : 0
    faces on cells with determinant < 0.001                : 0

Iteration 6
Moving mesh using displacement scaling : min:0  max:1
Checking faces in error :
    non-orthogonality > 65  degrees                        : 0
    faces with face pyramid volume < 1e-13                 : 0
    faces with face-decomposition tet quality < 1e-15      : 0
    faces with concavity > 80  degrees                     : 0
    faces with skewness > 4   (internal) or 20  (boundary) : 0
    faces with interpolation weights (0..1)  < 0.02        : 0
    faces with volume ratio of neighbour cells < 0.01      : 0
    faces with face twist < 0.02                           : 0
    faces on cells with determinant < 0.001                : 0
Successfully moved mesh
Moved mesh in = 11.04 s


Repatching faces according to nearest surface ...
Repatched 0 faces in = 0.77 s


Edge intersection testing:
    Number of edges             : 68313999
    Number of edges to retest   : 12621015
    Number of intersected edges : 1126930
Merging 32287 sets of faces.

Edge intersection testing:
    Number of edges             : 68279984
    Number of edges to retest   : 137952
    Number of intersected edges : 1092915

Undo iteration 0
----------------
Checking faces in error :
    non-orthogonality > 65  degrees                        : 0
    faces with face pyramid volume < 1e-13                 : 0
    faces with face-decomposition tet quality < 1e-15      : 1
    faces with concavity > 80  degrees                     : 0
    faces with skewness > 4   (internal) or 20  (boundary) : 0
    faces with interpolation weights (0..1)  < 0.02        : 0
    faces with volume ratio of neighbour cells < 0.01      : 0
    faces with face twist < 0.02                           : 0
    faces on cells with determinant < 0.001                : 0
Masters that need to be restored:2
Edge intersection testing:
    Number of edges             : 68279987
    Number of edges to retest   : 15
    Number of intersected edges : 1092918


Undo iteration 1
----------------
Checking faces in error :
    non-orthogonality > 65  degrees                        : 0
    faces with face pyramid volume < 1e-13                 : 0
    faces with face-decomposition tet quality < 1e-15      : 0
    faces with concavity > 80  degrees                     : 0
    faces with skewness > 4   (internal) or 20  (boundary) : 0
    faces with interpolation weights (0..1)  < 0.02        : 0
    faces with volume ratio of neighbour cells < 0.01      : 0
    faces with face twist < 0.02                           : 0
    faces on cells with determinant < 0.001                : 0

Merging all points on surface that
- are used by only two boundary faces and
- make an angle with a cosine of more than 0.866025.

Removing 30757 straight edge points ...

Edge intersection testing:
    Number of edges             : 68279987
    Number of edges to retest   : 135475
    Number of intersected edges : 1092918

Undo iteration 0
----------------
Checking faces in error :
    non-orthogonality > 65  degrees                        : 0
    faces with face pyramid volume < 1e-13                 : 0
    faces with face-decomposition tet quality < 1e-15      : 0
    faces with concavity > 80  degrees                     : 0
    faces with skewness > 4   (internal) or 20  (boundary) : 0
    faces with interpolation weights (0..1)  < 0.02        : 0
    faces with volume ratio of neighbour cells < 0.01      : 0
    faces with face twist < 0.02                           : 0
    faces on cells with determinant < 0.001                : 0
Snapped mesh : cells:22211486  faces:68279987  points:23864713
Cells per refinement level:
    0	116525
    1	395180
    2	1350200
    3	4211041
    4	822696
    5	5409944
    6	9905900
Writing mesh to time 2
Wrote mesh in = 25.95 s.
Mesh snapped in = 873.59 s.
Checking final mesh ...
Checking faces in error :
    non-orthogonality > 65  degrees                        : 0
    faces with face pyramid volume < 1e-13                 : 0
    faces with face-decomposition tet quality < 1e-15      : 0
    faces with concavity > 80  degrees                     : 0
    faces with skewness > 4   (internal) or 20  (boundary) : 0
    faces with interpolation weights (0..1)  < 0.02        : 0
    faces with volume ratio of neighbour cells < 0.01      : 0
    faces with face twist < 0.02                           : 0
    faces on cells with determinant < 0.001                : 0
Finished meshing without any errors
Finished meshing in = 1061.99 s.
End

Finalising parallel run
