/*---------------------------------------------------------------------------*\
| =========                 |                                                 |
| \\      /  F ield         | OpenFOAM: The Open Source CFD Toolbox           |
|  \\    /   O peration     | Version:  v1812                                 |
|   \\  /    A nd           | Web:      www.OpenFOAM.com                      |
|    \\/     M anipulation  |                                                 |
\*---------------------------------------------------------------------------*/
Build  : v1812 OPENFOAM=1812
Arch   : "LSB;label=32;scalar=64"
Exec   : renumberMesh -latestTime
Date   : Mar 27 2023
Time   : 17:42:21
Host   : compute-0-7.local
PID    : 88580
I/O    : uncollated
Case   : /home/finzeo/storage/Mallas/test/GTS_ofcom10
nProcs : 1
trapFpe: Floating point exception trapping enabled (FOAM_SIGFPE).
fileModificationChecking : Monitoring run-time modified files using timeStampMaster (fileModificationSkew 10)
allowSystemOperations : Allowing user-supplied system call operations

// * * * * * * * * * * * * * * * * * * * * * * * * * * * * * * * * * * * * * //
Create time

Create mesh for time = 3

Mesh size: 34111254
Before renumbering :
    band           : 21667948
    profile        : 1.00349e+13

Using default renumberMethod.

Selecting renumberMethod CuthillMcKee


After renumbering :
    band           : 583255
    profile        : 1.44391e+13

Writing mesh to "4"
End

