Cleaning case /home/finzeo/storage/Mallas/test/GTS_ofcom10
/*---------------------------------------------------------------------------*\
| =========                 |                                                 |
| \\      /  F ield         | OpenFOAM: The Open Source CFD Toolbox           |
|  \\    /   O peration     | Version:  v1812                                 |
|   \\  /    A nd           | Web:      www.OpenFOAM.com                      |
|    \\/     M anipulation  |                                                 |
\*---------------------------------------------------------------------------*/
Build  : v1812 OPENFOAM=1812
Arch   : "LSB;label=32;scalar=64"
Exec   : blockMesh
Date   : Mar 27 2023
Time   : 13:45:18
Host   : compute-0-32.local
PID    : 76696
I/O    : uncollated
Case   : /home/finzeo/storage/Mallas/test/GTS_ofcom10
nProcs : 1
trapFpe: Floating point exception trapping enabled (FOAM_SIGFPE).
fileModificationChecking : Monitoring run-time modified files using timeStampMaster (fileModificationSkew 10)
allowSystemOperations : Allowing user-supplied system call operations

// * * * * * * * * * * * * * * * * * * * * * * * * * * * * * * * * * * * * * //
Create time

Creating block mesh from
    "/home/finzeo/storage/Mallas/test/GTS_ofcom10/system/blockMeshDict"
Creating block edges
No non-planar block faces defined
Creating topology blocks
Creating topology patches

Creating block mesh topology

Check topology

	Basic statistics
		Number of internal faces : 0
		Number of boundary faces : 6
		Number of defined boundary faces : 6
		Number of undefined boundary faces : 0
	Checking patch -> block consistency

Creating block offsets
Creating merge list .

Creating polyMesh from blockMesh
Creating patches
Creating cells
Creating points with scale 1
    Block 0 cell size :
        i : 0.0752231 .. 0.0752231
        j : 0.0725714 .. 0.0725714
        k : 0.07112 .. 0.07112


There are no merge patch pairs

Writing polyMesh with 0 cellZones
----------------
Mesh Information
----------------
  boundingBox: (-7.33423 -1.524 -0.0762) (4.40057 1.524 2.0574)
  nPoints: 209281
  nCells: 196560
  nFaces: 602172
  nInternalFaces: 577188
----------------
Patches
----------------
  patch 0 (start: 577188 size: 1260) name: inlet
  patch 1 (start: 578448 size: 1260) name: outlet
  patch 2 (start: 579708 size: 4680) name: left
  patch 3 (start: 584388 size: 4680) name: right
  patch 4 (start: 589068 size: 6552) name: floor
  patch 5 (start: 595620 size: 6552) name: top

End

/*---------------------------------------------------------------------------*\
| =========                 |                                                 |
| \\      /  F ield         | OpenFOAM: The Open Source CFD Toolbox           |
|  \\    /   O peration     | Version:  v1812                                 |
|   \\  /    A nd           | Web:      www.OpenFOAM.com                      |
|    \\/     M anipulation  |                                                 |
\*---------------------------------------------------------------------------*/
Build  : v1812 OPENFOAM=1812
Arch   : "LSB;label=32;scalar=64"
Exec   : surfaceFeatureExtract
Date   : Mar 27 2023
Time   : 13:45:19
Host   : compute-0-32.local
PID    : 76697
I/O    : uncollated
Case   : /home/finzeo/storage/Mallas/test/GTS_ofcom10
nProcs : 1
trapFpe: Floating point exception trapping enabled (FOAM_SIGFPE).
fileModificationChecking : Monitoring run-time modified files using timeStampMaster (fileModificationSkew 10)
allowSystemOperations : Allowing user-supplied system call operations

// * * * * * * * * * * * * * * * * * * * * * * * * * * * * * * * * * * * * * //
Create time


Note: Feature line extraction only valid on closed manifold surfaces

Reading surfaceFeatureExtractDict

Surfaces     : GTS-Storms-v9.stl
Output       : GTS-Storms-v8
Load options : offset
Write options: writeObj=yes writeVTK=off

Statistics:
Triangles    : 9996 in 1 region(s)
Vertices     : 5000
Bounding Box : (-2.47648 -0.161925 -0.0762) (0 0.161925 0.4508)

Constructing feature set from included angle 171.3
Selecting edges based purely on geometric tests: no

Initial Feature set:
    points : 5
    edges  : 1138
    of which
        region edges   : 0
        external edges : 658
        internal edges : 480

Final Feature set:
    points : 1138
    of which
        convex             : 5
        concave            : 0
        mixed              : 0
        non-feature        : 1133
    edges  : 1138
    of which
        external edges     : 658
        internal edges     : 480
        flat edges         : 0
        open edges         : 0
        multiply connected : 0

Writing extendedFeatureEdgeMesh to "/home/finzeo/storage/Mallas/test/GTS_ofcom10/constant/extendedFeatureEdgeMesh/GTS-Storms-v8.extendedFeatureEdgeMesh"

Writing extendedEdgeMesh components to "/home/finzeo/storage/Mallas/test/GTS_ofcom10/constant/extendedFeatureEdgeMesh/GTS-Storms-v8"
Writing 5 convex feature points to "/home/finzeo/storage/Mallas/test/GTS_ofcom10/constant/extendedFeatureEdgeMesh/GTS-Storms-v8_convexFeaturePts.obj"
Writing 0 concave feature points to "/home/finzeo/storage/Mallas/test/GTS_ofcom10/constant/extendedFeatureEdgeMesh/GTS-Storms-v8_concaveFeaturePts.obj"
Writing 0 mixed feature points to "/home/finzeo/storage/Mallas/test/GTS_ofcom10/constant/extendedFeatureEdgeMesh/GTS-Storms-v8_mixedFeaturePts.obj"
Writing 0 mixed feature point structure to "/home/finzeo/storage/Mallas/test/GTS_ofcom10/constant/extendedFeatureEdgeMesh/GTS-Storms-v8_mixedFeaturePtsStructure.obj"
Writing 658 external edges to "/home/finzeo/storage/Mallas/test/GTS_ofcom10/constant/extendedFeatureEdgeMesh/GTS-Storms-v8_externalEdges.obj"
Writing 480 internal edges to "/home/finzeo/storage/Mallas/test/GTS_ofcom10/constant/extendedFeatureEdgeMesh/GTS-Storms-v8_internalEdges.obj"
Writing 0 flat edges to "/home/finzeo/storage/Mallas/test/GTS_ofcom10/constant/extendedFeatureEdgeMesh/GTS-Storms-v8_flatEdges.obj"
Writing 0 open edges to "/home/finzeo/storage/Mallas/test/GTS_ofcom10/constant/extendedFeatureEdgeMesh/GTS-Storms-v8_openEdges.obj"
Writing 0 multiple edges to "/home/finzeo/storage/Mallas/test/GTS_ofcom10/constant/extendedFeatureEdgeMesh/GTS-Storms-v8_multipleEdges.obj"
Writing 0 region edges to "/home/finzeo/storage/Mallas/test/GTS_ofcom10/constant/extendedFeatureEdgeMesh/GTS-Storms-v8_regionEdges.obj"
Writing 1138 edge directions to "/home/finzeo/storage/Mallas/test/GTS_ofcom10/constant/extendedFeatureEdgeMesh/GTS-Storms-v8_edgeDirections.obj"

Writing featureEdgeMesh to "/home/finzeo/storage/Mallas/test/GTS_ofcom10/constant/triSurface/GTS-Storms-v8.eMesh"
ExecutionTime = 0.06 s  ClockTime = 0 s

End

/*---------------------------------------------------------------------------*\
| =========                 |                                                 |
| \\      /  F ield         | OpenFOAM: The Open Source CFD Toolbox           |
|  \\    /   O peration     | Version:  v1812                                 |
|   \\  /    A nd           | Web:      www.OpenFOAM.com                      |
|    \\/     M anipulation  |                                                 |
\*---------------------------------------------------------------------------*/
Build  : v1812 OPENFOAM=1812
Arch   : "LSB;label=32;scalar=64"
Exec   : decomposePar -decomposeParDict system/decomposeParDict.40
Date   : Mar 27 2023
Time   : 13:45:20
Host   : compute-0-32.local
PID    : 76698
I/O    : uncollated
Case   : /home/finzeo/storage/Mallas/test/GTS_ofcom10
nProcs : 1
trapFpe: Floating point exception trapping enabled (FOAM_SIGFPE).
fileModificationChecking : Monitoring run-time modified files using timeStampMaster (fileModificationSkew 10)
allowSystemOperations : Allowing user-supplied system call operations

// * * * * * * * * * * * * * * * * * * * * * * * * * * * * * * * * * * * * * //
Create time



Decomposing mesh region0

Create mesh

Calculating distribution of cells
Selecting decompositionMethod hierarchical [40]

Finished decomposition in 0.13 s

Calculating original mesh data

Distributing cells to processors

Distributing faces to processors

Distributing points to processors

Constructing processor meshes

Processor 0
    Number of cells = 4914
    Number of faces shared with processor 1 = 150
    Number of faces shared with processor 5 = 488
    Number of faces shared with processor 20 = 349
    Number of faces shared with processor 25 = 15
    Number of processor patches = 4
    Number of processor faces = 1002
    Number of boundary faces = 966

Processor 1
    Number of cells = 4914
    Number of faces shared with processor 0 = 150
    Number of faces shared with processor 2 = 150
    Number of faces shared with processor 5 = 9
    Number of faces shared with processor 6 = 483
    Number of faces shared with processor 20 = 10
    Number of faces shared with processor 21 = 349
    Number of faces shared with processor 25 = 2
    Number of faces shared with processor 26 = 20
    Number of processor patches = 8
    Number of processor faces = 1173
    Number of boundary faces = 795

Processor 2
    Number of cells = 4914
    Number of faces shared with processor 1 = 150
    Number of faces shared with processor 3 = 164
    Number of faces shared with processor 6 = 8
    Number of faces shared with processor 7 = 482
    Number of faces shared with processor 21 = 10
    Number of faces shared with processor 22 = 348
    Number of faces shared with processor 26 = 2
    Number of faces shared with processor 27 = 25
    Number of processor patches = 8
    Number of processor faces = 1189
    Number of boundary faces = 801

Processor 3
    Number of cells = 4914
    Number of faces shared with processor 2 = 164
    Number of faces shared with processor 4 = 165
    Number of faces shared with processor 7 = 10
    Number of faces shared with processor 8 = 483
    Number of faces shared with processor 22 = 10
    Number of faces shared with processor 23 = 344
    Number of faces shared with processor 27 = 2
    Number of faces shared with processor 28 = 12
    Number of processor patches = 8
    Number of processor faces = 1190
    Number of boundary faces = 802

Processor 4
    Number of cells = 4914
    Number of faces shared with processor 3 = 165
    Number of faces shared with processor 8 = 3
    Number of faces shared with processor 9 = 477
    Number of faces shared with processor 23 = 11
    Number of faces shared with processor 24 = 345
    Number of faces shared with processor 28 = 2
    Number of faces shared with processor 29 = 18
    Number of processor patches = 7
    Number of processor faces = 1021
    Number of boundary faces = 957

Processor 5
    Number of cells = 4914
    Number of faces shared with processor 0 = 488
    Number of faces shared with processor 1 = 9
    Number of faces shared with processor 6 = 145
    Number of faces shared with processor 10 = 451
    Number of faces shared with processor 20 = 2
    Number of faces shared with processor 25 = 341
    Number of processor patches = 6
    Number of processor faces = 1436
    Number of boundary faces = 496

Processor 6
    Number of cells = 4914
    Number of faces shared with processor 1 = 483
    Number of faces shared with processor 2 = 8
    Number of faces shared with processor 5 = 145
    Number of faces shared with processor 7 = 166
    Number of faces shared with processor 10 = 2
    Number of faces shared with processor 11 = 454
    Number of faces shared with processor 21 = 2
    Number of faces shared with processor 25 = 10
    Number of faces shared with processor 26 = 341
    Number of processor patches = 9
    Number of processor faces = 1611
    Number of boundary faces = 351

Processor 7
    Number of cells = 4914
    Number of faces shared with processor 2 = 482
    Number of faces shared with processor 3 = 10
    Number of faces shared with processor 6 = 166
    Number of faces shared with processor 8 = 157
    Number of faces shared with processor 11 = 1
    Number of faces shared with processor 12 = 445
    Number of faces shared with processor 26 = 10
    Number of faces shared with processor 27 = 347
    Number of processor patches = 8
    Number of processor faces = 1618
    Number of boundary faces = 342

Processor 8
    Number of cells = 4914
    Number of faces shared with processor 3 = 483
    Number of faces shared with processor 4 = 3
    Number of faces shared with processor 7 = 157
    Number of faces shared with processor 9 = 143
    Number of faces shared with processor 13 = 474
    Number of faces shared with processor 23 = 2
    Number of faces shared with processor 27 = 11
    Number of faces shared with processor 28 = 353
    Number of processor patches = 8
    Number of processor faces = 1626
    Number of boundary faces = 326

Processor 9
    Number of cells = 4914
    Number of faces shared with processor 4 = 477
    Number of faces shared with processor 8 = 143
    Number of faces shared with processor 13 = 8
    Number of faces shared with processor 14 = 487
    Number of faces shared with processor 28 = 10
    Number of faces shared with processor 29 = 352
    Number of processor patches = 6
    Number of processor faces = 1477
    Number of boundary faces = 463

Processor 10
    Number of cells = 4914
    Number of faces shared with processor 5 = 451
    Number of faces shared with processor 6 = 2
    Number of faces shared with processor 11 = 169
    Number of faces shared with processor 15 = 493
    Number of faces shared with processor 25 = 24
    Number of faces shared with processor 30 = 352
    Number of faces shared with processor 35 = 18
    Number of processor patches = 7
    Number of processor faces = 1509
    Number of boundary faces = 493

Processor 11
    Number of cells = 4914
    Number of faces shared with processor 6 = 454
    Number of faces shared with processor 7 = 1
    Number of faces shared with processor 10 = 169
    Number of faces shared with processor 12 = 159
    Number of faces shared with processor 15 = 11
    Number of faces shared with processor 16 = 486
    Number of faces shared with processor 26 = 33
    Number of faces shared with processor 30 = 10
    Number of faces shared with processor 31 = 353
    Number of faces shared with processor 35 = 2
    Number of faces shared with processor 36 = 12
    Number of processor patches = 11
    Number of processor faces = 1690
    Number of boundary faces = 310

Processor 12
    Number of cells = 4914
    Number of faces shared with processor 7 = 445
    Number of faces shared with processor 11 = 159
    Number of faces shared with processor 13 = 150
    Number of faces shared with processor 16 = 6
    Number of faces shared with processor 17 = 477
    Number of faces shared with processor 27 = 48
    Number of faces shared with processor 31 = 11
    Number of faces shared with processor 32 = 347
    Number of faces shared with processor 36 = 2
    Number of faces shared with processor 37 = 25
    Number of processor patches = 10
    Number of processor faces = 1670
    Number of boundary faces = 310

Processor 13
    Number of cells = 4914
    Number of faces shared with processor 8 = 474
    Number of faces shared with processor 9 = 8
    Number of faces shared with processor 12 = 150
    Number of faces shared with processor 14 = 150
    Number of faces shared with processor 17 = 5
    Number of faces shared with processor 18 = 472
    Number of faces shared with processor 28 = 33
    Number of faces shared with processor 32 = 10
    Number of faces shared with processor 33 = 341
    Number of faces shared with processor 37 = 2
    Number of faces shared with processor 38 = 20
    Number of processor patches = 11
    Number of processor faces = 1665
    Number of boundary faces = 325

Processor 14
    Number of cells = 4914
    Number of faces shared with processor 9 = 487
    Number of faces shared with processor 13 = 150
    Number of faces shared with processor 18 = 5
    Number of faces shared with processor 19 = 472
    Number of faces shared with processor 29 = 24
    Number of faces shared with processor 33 = 10
    Number of faces shared with processor 34 = 341
    Number of faces shared with processor 38 = 2
    Number of faces shared with processor 39 = 15
    Number of processor patches = 9
    Number of processor faces = 1506
    Number of boundary faces = 492

Processor 15
    Number of cells = 4914
    Number of faces shared with processor 10 = 493
    Number of faces shared with processor 11 = 11
    Number of faces shared with processor 16 = 149
    Number of faces shared with processor 35 = 345
    Number of processor patches = 4
    Number of processor faces = 998
    Number of boundary faces = 960

Processor 16
    Number of cells = 4914
    Number of faces shared with processor 11 = 486
    Number of faces shared with processor 12 = 6
    Number of faces shared with processor 15 = 149
    Number of faces shared with processor 17 = 148
    Number of faces shared with processor 31 = 2
    Number of faces shared with processor 35 = 11
    Number of faces shared with processor 36 = 344
    Number of processor patches = 7
    Number of processor faces = 1146
    Number of boundary faces = 790

Processor 17
    Number of cells = 4914
    Number of faces shared with processor 12 = 477
    Number of faces shared with processor 13 = 5
    Number of faces shared with processor 16 = 148
    Number of faces shared with processor 18 = 149
    Number of faces shared with processor 36 = 10
    Number of faces shared with processor 37 = 348
    Number of processor patches = 6
    Number of processor faces = 1137
    Number of boundary faces = 787

Processor 18
    Number of cells = 4914
    Number of faces shared with processor 13 = 472
    Number of faces shared with processor 14 = 5
    Number of faces shared with processor 17 = 149
    Number of faces shared with processor 19 = 149
    Number of faces shared with processor 33 = 2
    Number of faces shared with processor 37 = 10
    Number of faces shared with processor 38 = 349
    Number of processor patches = 7
    Number of processor faces = 1136
    Number of boundary faces = 786

Processor 19
    Number of cells = 4914
    Number of faces shared with processor 14 = 472
    Number of faces shared with processor 18 = 149
    Number of faces shared with processor 34 = 2
    Number of faces shared with processor 38 = 10
    Number of faces shared with processor 39 = 349
    Number of processor patches = 5
    Number of processor faces = 982
    Number of boundary faces = 940

Processor 20
    Number of cells = 4914
    Number of faces shared with processor 0 = 349
    Number of faces shared with processor 1 = 10
    Number of faces shared with processor 5 = 2
    Number of faces shared with processor 21 = 149
    Number of faces shared with processor 25 = 472
    Number of processor patches = 5
    Number of processor faces = 982
    Number of boundary faces = 940

Processor 21
    Number of cells = 4914
    Number of faces shared with processor 1 = 349
    Number of faces shared with processor 2 = 10
    Number of faces shared with processor 6 = 2
    Number of faces shared with processor 20 = 149
    Number of faces shared with processor 22 = 149
    Number of faces shared with processor 25 = 5
    Number of faces shared with processor 26 = 472
    Number of processor patches = 7
    Number of processor faces = 1136
    Number of boundary faces = 786

Processor 22
    Number of cells = 4914
    Number of faces shared with processor 2 = 348
    Number of faces shared with processor 3 = 10
    Number of faces shared with processor 21 = 149
    Number of faces shared with processor 23 = 148
    Number of faces shared with processor 26 = 5
    Number of faces shared with processor 27 = 477
    Number of processor patches = 6
    Number of processor faces = 1137
    Number of boundary faces = 787

Processor 23
    Number of cells = 4914
    Number of faces shared with processor 3 = 344
    Number of faces shared with processor 4 = 11
    Number of faces shared with processor 8 = 2
    Number of faces shared with processor 22 = 148
    Number of faces shared with processor 24 = 149
    Number of faces shared with processor 27 = 6
    Number of faces shared with processor 28 = 486
    Number of processor patches = 7
    Number of processor faces = 1146
    Number of boundary faces = 790

Processor 24
    Number of cells = 4914
    Number of faces shared with processor 4 = 345
    Number of faces shared with processor 23 = 149
    Number of faces shared with processor 28 = 11
    Number of faces shared with processor 29 = 493
    Number of processor patches = 4
    Number of processor faces = 998
    Number of boundary faces = 960

Processor 25
    Number of cells = 4914
    Number of faces shared with processor 0 = 15
    Number of faces shared with processor 1 = 2
    Number of faces shared with processor 5 = 341
    Number of faces shared with processor 6 = 10
    Number of faces shared with processor 10 = 24
    Number of faces shared with processor 20 = 472
    Number of faces shared with processor 21 = 5
    Number of faces shared with processor 26 = 150
    Number of faces shared with processor 30 = 487
    Number of processor patches = 9
    Number of processor faces = 1506
    Number of boundary faces = 492

Processor 26
    Number of cells = 4914
    Number of faces shared with processor 1 = 20
    Number of faces shared with processor 2 = 2
    Number of faces shared with processor 6 = 341
    Number of faces shared with processor 7 = 10
    Number of faces shared with processor 11 = 33
    Number of faces shared with processor 21 = 472
    Number of faces shared with processor 22 = 5
    Number of faces shared with processor 25 = 150
    Number of faces shared with processor 27 = 150
    Number of faces shared with processor 30 = 8
    Number of faces shared with processor 31 = 474
    Number of processor patches = 11
    Number of processor faces = 1665
    Number of boundary faces = 325

Processor 27
    Number of cells = 4914
    Number of faces shared with processor 2 = 25
    Number of faces shared with processor 3 = 2
    Number of faces shared with processor 7 = 347
    Number of faces shared with processor 8 = 11
    Number of faces shared with processor 12 = 48
    Number of faces shared with processor 22 = 477
    Number of faces shared with processor 23 = 6
    Number of faces shared with processor 26 = 150
    Number of faces shared with processor 28 = 159
    Number of faces shared with processor 32 = 445
    Number of processor patches = 10
    Number of processor faces = 1670
    Number of boundary faces = 310

Processor 28
    Number of cells = 4914
    Number of faces shared with processor 3 = 12
    Number of faces shared with processor 4 = 2
    Number of faces shared with processor 8 = 353
    Number of faces shared with processor 9 = 10
    Number of faces shared with processor 13 = 33
    Number of faces shared with processor 23 = 486
    Number of faces shared with processor 24 = 11
    Number of faces shared with processor 27 = 159
    Number of faces shared with processor 29 = 169
    Number of faces shared with processor 32 = 1
    Number of faces shared with processor 33 = 454
    Number of processor patches = 11
    Number of processor faces = 1690
    Number of boundary faces = 310

Processor 29
    Number of cells = 4914
    Number of faces shared with processor 4 = 18
    Number of faces shared with processor 9 = 352
    Number of faces shared with processor 14 = 24
    Number of faces shared with processor 24 = 493
    Number of faces shared with processor 28 = 169
    Number of faces shared with processor 33 = 2
    Number of faces shared with processor 34 = 451
    Number of processor patches = 7
    Number of processor faces = 1509
    Number of boundary faces = 493

Processor 30
    Number of cells = 4914
    Number of faces shared with processor 10 = 352
    Number of faces shared with processor 11 = 10
    Number of faces shared with processor 25 = 487
    Number of faces shared with processor 26 = 8
    Number of faces shared with processor 31 = 143
    Number of faces shared with processor 35 = 477
    Number of processor patches = 6
    Number of processor faces = 1477
    Number of boundary faces = 463

Processor 31
    Number of cells = 4914
    Number of faces shared with processor 11 = 353
    Number of faces shared with processor 12 = 11
    Number of faces shared with processor 16 = 2
    Number of faces shared with processor 26 = 474
    Number of faces shared with processor 30 = 143
    Number of faces shared with processor 32 = 157
    Number of faces shared with processor 35 = 3
    Number of faces shared with processor 36 = 483
    Number of processor patches = 8
    Number of processor faces = 1626
    Number of boundary faces = 326

Processor 32
    Number of cells = 4914
    Number of faces shared with processor 12 = 347
    Number of faces shared with processor 13 = 10
    Number of faces shared with processor 27 = 445
    Number of faces shared with processor 28 = 1
    Number of faces shared with processor 31 = 157
    Number of faces shared with processor 33 = 166
    Number of faces shared with processor 36 = 10
    Number of faces shared with processor 37 = 482
    Number of processor patches = 8
    Number of processor faces = 1618
    Number of boundary faces = 342

Processor 33
    Number of cells = 4914
    Number of faces shared with processor 13 = 341
    Number of faces shared with processor 14 = 10
    Number of faces shared with processor 18 = 2
    Number of faces shared with processor 28 = 454
    Number of faces shared with processor 29 = 2
    Number of faces shared with processor 32 = 166
    Number of faces shared with processor 34 = 145
    Number of faces shared with processor 37 = 8
    Number of faces shared with processor 38 = 483
    Number of processor patches = 9
    Number of processor faces = 1611
    Number of boundary faces = 351

Processor 34
    Number of cells = 4914
    Number of faces shared with processor 14 = 341
    Number of faces shared with processor 19 = 2
    Number of faces shared with processor 29 = 451
    Number of faces shared with processor 33 = 145
    Number of faces shared with processor 38 = 9
    Number of faces shared with processor 39 = 488
    Number of processor patches = 6
    Number of processor faces = 1436
    Number of boundary faces = 496

Processor 35
    Number of cells = 4914
    Number of faces shared with processor 10 = 18
    Number of faces shared with processor 11 = 2
    Number of faces shared with processor 15 = 345
    Number of faces shared with processor 16 = 11
    Number of faces shared with processor 30 = 477
    Number of faces shared with processor 31 = 3
    Number of faces shared with processor 36 = 165
    Number of processor patches = 7
    Number of processor faces = 1021
    Number of boundary faces = 957

Processor 36
    Number of cells = 4914
    Number of faces shared with processor 11 = 12
    Number of faces shared with processor 12 = 2
    Number of faces shared with processor 16 = 344
    Number of faces shared with processor 17 = 10
    Number of faces shared with processor 31 = 483
    Number of faces shared with processor 32 = 10
    Number of faces shared with processor 35 = 165
    Number of faces shared with processor 37 = 164
    Number of processor patches = 8
    Number of processor faces = 1190
    Number of boundary faces = 802

Processor 37
    Number of cells = 4914
    Number of faces shared with processor 12 = 25
    Number of faces shared with processor 13 = 2
    Number of faces shared with processor 17 = 348
    Number of faces shared with processor 18 = 10
    Number of faces shared with processor 32 = 482
    Number of faces shared with processor 33 = 8
    Number of faces shared with processor 36 = 164
    Number of faces shared with processor 38 = 150
    Number of processor patches = 8
    Number of processor faces = 1189
    Number of boundary faces = 801

Processor 38
    Number of cells = 4914
    Number of faces shared with processor 13 = 20
    Number of faces shared with processor 14 = 2
    Number of faces shared with processor 18 = 349
    Number of faces shared with processor 19 = 10
    Number of faces shared with processor 33 = 483
    Number of faces shared with processor 34 = 9
    Number of faces shared with processor 37 = 150
    Number of faces shared with processor 39 = 150
    Number of processor patches = 8
    Number of processor faces = 1173
    Number of boundary faces = 795

Processor 39
    Number of cells = 4914
    Number of faces shared with processor 14 = 15
    Number of faces shared with processor 19 = 349
    Number of faces shared with processor 34 = 488
    Number of faces shared with processor 38 = 150
    Number of processor patches = 4
    Number of processor faces = 1002
    Number of boundary faces = 966

Number of processor faces = 26782
Max number of cells = 4914 (0% above average 4914)
Max number of processor patches = 11 (47.651% above average 7.45)
Max number of faces between processors = 1690 (26.2042% above average 1339.1)

Time = 0

Processor 0: field transfer
Processor 1: field transfer
Processor 2: field transfer
Processor 3: field transfer
Processor 4: field transfer
Processor 5: field transfer
Processor 6: field transfer
Processor 7: field transfer
Processor 8: field transfer
Processor 9: field transfer
Processor 10: field transfer
Processor 11: field transfer
Processor 12: field transfer
Processor 13: field transfer
Processor 14: field transfer
Processor 15: field transfer
Processor 16: field transfer
Processor 17: field transfer
Processor 18: field transfer
Processor 19: field transfer
Processor 20: field transfer
Processor 21: field transfer
Processor 22: field transfer
Processor 23: field transfer
Processor 24: field transfer
Processor 25: field transfer
Processor 26: field transfer
Processor 27: field transfer
Processor 28: field transfer
Processor 29: field transfer
Processor 30: field transfer
Processor 31: field transfer
Processor 32: field transfer
Processor 33: field transfer
Processor 34: field transfer
Processor 35: field transfer
Processor 36: field transfer
Processor 37: field transfer
Processor 38: field transfer
Processor 39: field transfer

End

[2] 
[2] 
[2] --> FOAM FATAL IO ERROR: 
[2] Could not open "/share/storage/finzeo/Mallas/test/GTS_ofcom10/processor2/constant/triSurface/GTS-Storms-v9.eMesh"
[2] 
[2] file: IOstream.castellatedMeshControls.features
[2] 
[2]     From function void Foam::refinementFeatures::read(const Foam::objectRegistry&, const Foam::PtrList<Foam::dictionary>&)
[2]     in file refinementFeatures/refinementFeatures.C at line 95.
[2] 
FOAM parallel run exiting
[2] 
[4] 
[4] 
[4] --> FOAM FATAL IO ERROR: 
[4] Could not open "/share/storage/finzeo/Mallas/test/GTS_ofcom10/processor4/constant/triSurface/GTS-Storms-v9.eMesh"
[4] 
[4] file: IOstream.castellatedMeshControls.features
[4] 
[4]     From function void Foam::refinementFeatures::read(const Foam::objectRegistry&, const Foam::PtrList<Foam::dictionary>&)
[4]     in file refinementFeatures/refinementFeatures.C at line 95.
[4] 
FOAM parallel run exiting
[4] 
[6] 
[6] 
[6] --> FOAM FATAL IO ERROR: 
[6] Could not open "/share/storage/finzeo/Mallas/test/GTS_ofcom10/processor6/constant/triSurface/GTS-Storms-v9.eMesh"
[6] 
[6] file: IOstream.castellatedMeshControls.features
[6] 
[6]     From function void Foam::refinementFeatures::read(const Foam::objectRegistry&, const Foam::PtrList<Foam::dictionary>&)
[6]     in file refinementFeatures/refinementFeatures.C at line 95.
[6] 
FOAM parallel run exiting
[6] 
[13] [16] 
[16] 
[16] --> FOAM FATAL IO ERROR: 
[16] Could not open "/share/storage/finzeo/Mallas/test/GTS_ofcom10/processor16/constant/triSurface/GTS-Storms-v9.eMesh"
[16] 
[16] file: IOstream.castellatedMeshControls.features
[16] 
[16]     From function void Foam::refinementFeatures::read(const Foam::objectRegistry&, const Foam::PtrList<Foam::dictionary>&)
[16]     in file refinementFeatures/refinementFeatures.C at line 95.
[16] 
FOAM parallel run exiting
[16] 
[1] 
[1] 
[1] [8] 
[8] 
[8] --> FOAM FATAL IO ERROR: 
[8] Could not open "/share/storage/finzeo/Mallas/test/GTS_ofcom10/processor8/constant/triSurface/GTS-Storms-v9.eMesh"
[8] 
[8] file: IOstream.castellatedMeshControls.features
[8] 
[8]     From function void Foam::refinementFeatures::read(const Foam::objectRegistry&, const Foam::PtrList<Foam::dictionary>&)
[8]     in file refinementFeatures/refinementFeatures.C at line 95.
[8] 
FOAM parallel run exiting
[8] 
[11] 
[12] 
[12] 
[12] --> FOAM FATAL IO ERROR: 
[12] Could not open "/share/storage/finzeo/Mallas/test/GTS_ofcom10/processor12/constant/triSurface/GTS-Storms-v9.eMesh"
[12] 
[12] file: IOstream.castellatedMeshControls.features
[12] 
[12]     From function void Foam::refinementFeatures::read(const Foam::objectRegistry&, const Foam::PtrList<Foam::dictionary>&)
[12]     in file refinementFeatures/refinementFeatures.C at line 95.
[12] 
FOAM parallel run exiting
[12] 
[14] 
[14] 
[14] --> FOAM FATAL IO ERROR: 
[14] Could not open "/share/storage/finzeo/Mallas/test/GTS_ofcom10/processor14/constant/triSurface/GTS-Storms-v9.eMesh"
[14] 
[14] file: IOstream.castellatedMeshControls.features
[14] 
[14]     From function void Foam::refinementFeatures::read(const Foam::objectRegistry&, const Foam::PtrList<Foam::dictionary>&)
[14]     in file refinementFeatures/refinementFeatures.C at line 95.
[14] 
FOAM parallel run exiting
[14] 
[15] 
[15] 
[15] --> FOAM FATAL IO ERROR: 
[15] Could not open "/share/storage/finzeo/Mallas/test/GTS_ofcom10/processor15/constant/triSurface/GTS-Storms-v9.eMesh"
[15] 
[15] file: IOstream.castellatedMeshControls.features
[15] 
[15]     From function void Foam::refinementFeatures::read(const Foam::objectRegistry&, const Foam::PtrList<Foam::dictionary>&)
[15]     in file refinementFeatures/refinementFeatures.C at line [17] 
[17] 
[17] --> FOAM FATAL IO ERROR: 
[17] Could not open "/share/storage/finzeo/Mallas/test/GTS_ofcom10/processor17/constant/triSurface/GTS-Storms-v9.eMesh"
[17] 
[17] file: IOstream.castellatedMeshControls.features
[17] 
[17]     From function void Foam::refinementFeatures::read(const Foam::objectRegistry&, const Foam::PtrList<Foam::dictionary>&)
[17]     in file refinementFeatures/refinementFeatures.C[0] 
[0] 
[0] --> FOAM FATAL IO ERROR: 
[0] Could not open "/share/storage/finzeo/Mallas/test/GTS_ofcom10/processor0/constant/triSurface/GTS-Storms-v9.eMesh"
[0] 
[0] file: /share/storage/finzeo/Mallas/test/GTS_ofcom10/system/snappyHexMeshDict.castellatedMeshControls.features
[0] 
[0]     From function void Foam::refinementFeatures::read(const Foam::objectRegistry&, const Foam::PtrList<Foam::dictionary>&)
[0]     in file refinementFeatures/refinementFeatures.C at line 95.
[0] 
FOAM parallel run exiting
[0] 
[3] 
[3] 
[3] --> FOAM FATAL IO ERROR: 
[3] Could not open "/share/storage/finzeo/Mallas/test/GTS_ofcom10/processor3/constant/triSurface/GTS-Storms-v9.eMesh"
[3] 
[3] file: IOstream.castellatedMeshControls.features
[3] 
[3]     From function void Foam::refinementFeatures::read(const Foam::objectRegistry&, const Foam::PtrList<Foam::dictionary>&)
[3]     in file refinementFeatures/refinementFeatures.C at line 95.
[3] 
FOAM parallel run exiting
[3] 
[5] 
[5] 
[5] --> FOAM FATAL IO ERROR: 
[5] Could not open "/share/storage/finzeo/Mallas/test/GTS_ofcom10/processor5/constant/triSurface/GTS-Storms-v9.eMesh"
[5] 
[5] file: IOstream.castellatedMeshControls.features
[5] 
[5]     From function void Foam::refinementFeatures::read(const Foam::objectRegistry&, const Foam::PtrList<Foam::dictionary>&)
[5]     in file refinementFeatures/refinementFeatures.C at line 95.
[5] 
FOAM parallel run exiting
[5] 
[7] 
[7] 
[7] --> FOAM FATAL IO ERROR: 
[7] Could not open "/share/storage/finzeo/Mallas/test/GTS_ofcom10/processor7/constant/triSurface/GTS-Storms-v9.eMesh"
[7] 
[7] file: IOstream.castellatedMeshControls.features
[7] 
[7]     From function void Foam::refinementFeatures::read(const Foam::objectRegistry&, const Foam::PtrList<Foam::dictionary>&)
[7]     in file refinementFeatures/refinementFeatures.C at line 95.
[7] 
FOAM parallel run exiting
[7] 
--> FOAM FATAL IO ERROR: 
[1] Could not open "/share/storage/finzeo/Mallas/test/GTS_ofcom10/processor1/constant/triSurface/GTS-Storms-v9.eMesh"
[1] 
[1] file: IOstream.castellatedMeshControls.features
[1] 
[1]     From function void Foam::refinementFeatures::read(const Foam::objectRegistry&, const Foam::PtrList<Foam::dictionary>&)
[1]     in file refinementFeatures/refinementFeatures.C at line 95.
[1] 
FOAM parallel run exiting
[1] 
[9] 
[9] 
[9] --> FOAM FATAL IO ERROR: 
[9] Could not open "/share/storage/finzeo/Mallas/test/GTS_ofcom10/processor9/constant/triSurface/GTS-Storms-v9.eMesh"
[9] 
[9] file: IOstream.castellatedMeshControls.features
[9] 
[9]     From function void Foam::refinementFeatures::read(const Foam::objectRegistry&, const Foam::PtrList<Foam::dictionary>&)
[9]     in file refinementFeatures/refinementFeatures.C at line 95.
[9] 
FOAM parallel run exiting
[9] 
[10] 
[10] 
[10] --> FOAM FATAL IO ERROR: 
[10] Could not open "/share/storage/finzeo/Mallas/test/GTS_ofcom10/processor10/constant/triSurface/GTS-Storms-v9.eMesh"
[10] 
[10] file: IOstream.castellatedMeshControls.features
[10] 
[10]     From function void Foam::refinementFeatures::read(const Foam::objectRegistry&, const Foam::PtrList<Foam::dictionary>&)
[10]     in file refinementFeatures/refinementFeatures.C at line 95.
[10] 
FOAM parallel run exiting
[10] 
[11] 
[11] --> FOAM FATAL IO ERROR: 
[11] Could not open "/share/storage/finzeo/Mallas/test/GTS_ofcom10/processor11/constant/triSurface/GTS-Storms-v9.eMesh"
[11] 
[11] file: IOstream.castellatedMeshControls.features
[11] 
[11]     From function void Foam::refinementFeatures::read(const Foam::objectRegistry&, const Foam::PtrList<Foam::dictionary>&)
[11]     in file refinementFeatures/refinementFeatures.C at line 95.
[11] 
FOAM parallel run exiting
[11] 
95.
[15] 
FOAM parallel run exiting
[15] 
[19] 
[19] 
[19] --> FOAM FATAL IO ERROR: 
[19] Could not open "/share/storage/finzeo/Mallas/test/GTS_ofcom10/processor19/constant/triSurface/GTS-Storms-v9.eMesh"
[19] 
[19] file: IOstream.castellatedMeshControls.features
[19] 
[19]     From function void Foam::refinementFeatures::read(const Foam::objectRegistry&, const Foam::PtrList<Foam::dictionary>&)
[19]     in file refinementFeatures/refinementFeatures.C at line 95.
[19] 
FOAM parallel run exiting
[19] 
 at line 95.
[17] 
FOAM parallel run exiting
[17] 
[18] 
[18] 
[18] --> FOAM FATAL IO ERROR: 
[18] Could not open "/share/storage/finzeo/Mallas/test/GTS_ofcom10/processor18/constant/triSurface/GTS-Storms-v9.eMesh"
[18] 
[18] file: IOstream.castellatedMeshControls.features
[18] 
[18]     From function void Foam::refinementFeatures::read(const Foam::objectRegistry&, const Foam::PtrList<Foam::dictionary>&)
[18]     in file refinementFeatures/refinementFeatures.C at line 95.
[18] 
FOAM parallel run exiting
[18] 

[13] 
[13] --> FOAM FATAL IO ERROR: 
[13] Could not open "/share/storage/finzeo/Mallas/test/GTS_ofcom10/processor13/constant/triSurface/GTS-Storms-v9.eMesh"
[13] 
[13] file: IOstream.castellatedMeshControls.features
[13] 
[13]     From function void Foam::refinementFeatures::read(const Foam::objectRegistry&, const Foam::PtrList<Foam::dictionary>&)
[13]     in file refinementFeatures/refinementFeatures.C at line 95.
[13] 
FOAM parallel run exiting
[13] 
[25] 
[25] 
[25] --> FOAM FATAL IO ERROR: 
[25] Could not open "/share/storage/finzeo/Mallas/test/GTS_ofcom10/processor25/constant/triSurface/GTS-Storms-v9.eMesh"
[25] 
[25] file: IOstream.castellatedMeshControls.features
[25] 
[25]     From function void Foam::refinementFeatures::read(const Foam::objectRegistry&, const Foam::PtrList<Foam::dictionary>&)
[25]     in file refinementFeatures/refinementFeatures.C at line 95.
[25] 
FOAM parallel run exiting
[25] 
[35] 
[35] 
[35] --> FOAM FATAL IO ERROR: 
[35] Could not open "/share/storage/finzeo/Mallas/test/GTS_ofcom10/processor35/constant/triSurface/GTS-Storms-v9.eMesh"
[35] 
[35] file: IOstream.castellatedMeshControls.features
[35] 
[35]     From function void Foam::refinementFeatures::read(const Foam::objectRegistry&, const Foam::PtrList<Foam::dictionary>&)
[35]     in file refinementFeatures/refinementFeatures.C at line 95.
[35] 
FOAM parallel run exiting
[35] 
[20] 
[20] 
[20] --> FOAM FATAL IO ERROR: 
[20] Could not open "/share/storage/finzeo/Mallas/test/GTS_ofcom10/processor20/constant/triSurface/GTS-Storms-v9.eMesh"
[20] 
[20] file: IOstream.castellatedMeshControls.features
[20] 
[20]     From function void Foam::refinementFeatures::read(const Foam::objectRegistry&, const Foam::PtrList<Foam::dictionary>&)
[20]     in file refinementFeatures/refinementFeatures.C at line 95.
[20] 
FOAM parallel run exiting
[20] 
[21] 
[21] 
[21] --> FOAM FATAL IO ERROR: 
[21] Could not open "/share/storage/finzeo/Mallas/test/GTS_ofcom10/processor21/constant/triSurface/GTS-Storms-v9.eMesh"
[21] 
[21] file: IOstream.castellatedMeshControls.features
[21] 
[21]     From function void Foam::refinementFeatures::read(const Foam::objectRegistry&, const Foam::PtrList<Foam::dictionary>&)
[21]     in file refinementFeatures/refinementFeatures.C at line 95.
[21] 
FOAM parallel run exiting
[21] 
[23] 
[23] 
[23] --> FOAM FATAL IO ERROR: 
[23] Could not open "/share/storage/finzeo/Mallas/test/GTS_ofcom10/processor23/constant/triSurface/GTS-Storms-v9.eMesh"
[23] 
[23] file: IOstream.castellatedMeshControls.features
[23] 
[23]     From function void Foam::refinementFeatures::read(const Foam::objectRegistry&, const Foam::PtrList<Foam::dictionary>&)
[23]     in file refinementFeatures/refinementFeatures.C at line 95.
[23] 
FOAM parallel run exiting
[23] 
[26] 
[26] 
[26] --> FOAM FATAL IO ERROR: 
[26] Could not open "/share/storage/finzeo/Mallas/test/GTS_ofcom10/processor26/constant/triSurface/GTS-Storms-v9.eMesh"
[26] 
[26] file: IOstream.castellatedMeshControls.features
[26] 
[26]     From function void Foam::refinementFeatures::read(const Foam::objectRegistry&, const Foam::PtrList<Foam::dictionary>&)
[26]     in file refinementFeatures/refinementFeatures.C at line 95.
[26] 
FOAM parallel run exiting
[26] 
[27] 
[27] 
[27] --> FOAM FATAL IO ERROR: 
[27] Could not open "/share/storage/finzeo/Mallas/test/GTS_ofcom10/processor27/constant/triSurface/GTS-Storms-v9.eMesh"
[27] 
[27] file: IOstream.castellatedMeshControls.features
[27] 
[27]     From function void Foam::refinementFeatures::read(const Foam::objectRegistry&, const Foam::PtrList<Foam::dictionary>&)
[27]     in file refinementFeatures/refinementFeatures.C at line 95.
[27] 
FOAM parallel run exiting
[27] 
[28] 
[28] 
[28] --> FOAM FATAL IO ERROR: 
[28] Could not open "/share/storage/finzeo/Mallas/test/GTS_ofcom10/processor28/constant/triSurface/GTS-Storms-v9.eMesh"
[28] 
[28] file: IOstream.castellatedMeshControls.features
[28] 
[28]     From function void Foam::refinementFeatures::read(const Foam::objectRegistry&, const Foam::PtrList<Foam::dictionary>&)
[28]     in file refinementFeatures/refinementFeatures.C at line 95.
[28] 
FOAM parallel run exiting
[28] 
[29] 
[29] 
[29] --> FOAM FATAL IO ERROR: 
[29] Could not open "/share/storage/finzeo/Mallas/test/GTS_ofcom10/processor29/constant/triSurface/GTS-Storms-v9.eMesh"
[29] 
[29] file: IOstream.castellatedMeshControls.features
[29] 
[29]     From function void Foam::refinementFeatures::read(const Foam::objectRegistry&, const Foam::PtrList<Foam::dictionary>&)
[29]     in file refinementFeatures/refinementFeatures.C at line 95.
[29] 
FOAM parallel run exiting
[29] 
[31] 
[31] 
[31] --> FOAM FATAL IO ERROR: 
[31] Could not open "/share/storage/finzeo/Mallas/test/GTS_ofcom10/processor31/constant/triSurface/GTS-Storms-v9.eMesh"
[31] 
[31] file: IOstream.castellatedMeshControls.features
[31] 
[31]     From function void Foam::refinementFeatures::read(const Foam::objectRegistry&, const Foam::PtrList<Foam::dictionary>&)
[31]     in file refinementFeatures/refinementFeatures.C at line 95.
[31] 
FOAM parallel run exiting
[31] 
[32] 
[32] 
[32] --> FOAM FATAL IO ERROR: 
[32] Could not open "/share/storage/finzeo/Mallas/test/GTS_ofcom10/processor32/constant/triSurface/GTS-Storms-v9.eMesh"
[32] 
[32] file: IOstream.castellatedMeshControls.features
[32] 
[32]     From function void Foam::refinementFeatures::read(const Foam::objectRegistry&, const Foam::PtrList<Foam::dictionary>&)
[32]     in file refinementFeatures/refinementFeatures.C at line 95.
[32] 
FOAM parallel run exiting
[32] 
[33] 
[33] 
[33] --> FOAM FATAL IO ERROR: 
[33] Could not open "/share/storage/finzeo/Mallas/test/GTS_ofcom10/processor33/constant/triSurface/GTS-Storms-v9.eMesh"
[33] 
[33] file: IOstream.castellatedMeshControls.features
[33] 
[33]     From function void Foam::refinementFeatures::read(const Foam::objectRegistry&, const Foam::PtrList<Foam::dictionary>&)
[33]     in file refinementFeatures/refinementFeatures.C at line 95.
[33] 
FOAM parallel run exiting
[33] 
[36] 
[36] 
[36] --> FOAM FATAL IO ERROR: 
[36] Could not open "/share/storage/finzeo/Mallas/test/GTS_ofcom10/processor36/constant/triSurface/GTS-Storms-v9.eMesh"
[36] 
[36] file: IOstream.castellatedMeshControls.features
[36] 
[36]     From function void Foam::refinementFeatures::read(const Foam::objectRegistry&, const Foam::PtrList<Foam::dictionary>&)
[36]     in file refinementFeatures/refinementFeatures.C at line 95.
[36] 
FOAM parallel run exiting
[36] 
[37] 
[37] 
[37] --> FOAM FATAL IO ERROR: 
[37] Could not open "/share/storage/finzeo/Mallas/test/GTS_ofcom10/processor37/constant/triSurface/GTS-Storms-v9.eMesh"
[37] 
[37] file: IOstream.castellatedMeshControls.features
[37] 
[37]     From function void Foam::refinementFeatures::read(const Foam::objectRegistry&, const Foam::PtrList<Foam::dictionary>&)
[37]     in file refinementFeatures/refinementFeatures.C at line 95.
[37] 
FOAM parallel run exiting
[37] 
[39] 
[39] 
[39] --> FOAM FATAL IO ERROR: 
[39] Could not open "/share/storage/finzeo/Mallas/test/GTS_ofcom10/processor39/constant/triSurface/GTS-Storms-v9.eMesh"
[39] 
[39] file: IOstream.castellatedMeshControls.features
[39] 
[39]     From function void Foam::refinementFeatures::read(const Foam::objectRegistry&, const Foam::PtrList<Foam::dictionary>&)
[39]     in file refinementFeatures/refinementFeatures.C at line 95.
[39] 
FOAM parallel run exiting
[39] 
[22] 
[22] 
[22] --> FOAM FATAL IO ERROR: 
[22] Could not open "/share/storage/finzeo/Mallas/test/GTS_ofcom10/processor22/constant/triSurface/GTS-Storms-v9.eMesh"
[22] 
[22] file: IOstream.castellatedMeshControls.features
[22] 
[22]     From function void Foam::refinementFeatures::read(const Foam::objectRegistry&, const Foam::PtrList<Foam::dictionary>&)
[22]     in file refinementFeatures/refinementFeatures.C at line 95.
[22] 
FOAM parallel run exiting
[22] 
[24] 
[24] 
[24] --> FOAM FATAL IO ERROR: 
[24] Could not open "/share/storage/finzeo/Mallas/test/GTS_ofcom10/processor24/constant/triSurface/GTS-Storms-v9.eMesh"
[24] 
[24] file: IOstream.castellatedMeshControls.features
[24] 
[24]     From function void Foam::refinementFeatures::read(const Foam::objectRegistry&, const Foam::PtrList<Foam::dictionary>&)
[24]     in file refinementFeatures/refinementFeatures.C at line 95.
[24] 
FOAM parallel run exiting
[24] 
[30] 
[30] 
[30] --> FOAM FATAL IO ERROR: 
[30] Could not open "/share/storage/finzeo/Mallas/test/GTS_ofcom10/processor30/constant/triSurface/GTS-Storms-v9.eMesh"
[30] 
[30] file: IOstream.castellatedMeshControls.features
[30] 
[30]     From function void Foam::refinementFeatures::read(const Foam::objectRegistry&, const Foam::PtrList<Foam::dictionary>&)
[30]     in file refinementFeatures/refinementFeatures.C at line 95.
[30] 
FOAM parallel run exiting
[30] 
[34] 
[34] 
[34] --> FOAM FATAL IO ERROR: 
[34] Could not open "/share/storage/finzeo/Mallas/test/GTS_ofcom10/processor34/constant/triSurface/GTS-Storms-v9.eMesh"
[34] 
[34] file: IOstream.castellatedMeshControls.features
[34] 
[34]     From function void Foam::refinementFeatures::read(const Foam::objectRegistry&, const Foam::PtrList<Foam::dictionary>&)
[34]     in file refinementFeatures/refinementFeatures.C at line 95.
[34] 
FOAM parallel run exiting
[34] 
[38] 
[38] 
[38] --> FOAM FATAL IO ERROR: 
[38] Could not open "/share/storage/finzeo/Mallas/test/GTS_ofcom10/processor38/constant/triSurface/GTS-Storms-v9.eMesh"
[38] 
[38] file: IOstream.castellatedMeshControls.features
[38] 
[38]     From function void Foam::refinementFeatures::read(const Foam::objectRegistry&, const Foam::PtrList<Foam::dictionary>&)
[38]     in file refinementFeatures/refinementFeatures.C at line 95.
[38] 
FOAM parallel run exiting
[38] 
[compute-0-32.local:76699] 39 more processes have sent help message help-mpi-api.txt / mpi-abort
[compute-0-32.local:76699] Set MCA parameter "orte_base_help_aggregate" to 0 to see all help / error messages
[18] 
[6] 
[6] 
[6] --> FOAM FATAL IO ERROR: 
[6] Could not open "/share/storage/finzeo/Mallas/test/GTS_ofcom10/processor6/constant/triSurface/GTS-Storms-v9.eMesh"
[6] 
[6] file: IOstream.castellatedMeshControls.features
[6] 
[6]     From function void Foam::refinementFeatures::read(const Foam::objectRegistry&, const Foam::PtrList<Foam::dictionary>&)
[6]     in file refinementFeatures/refinementFeatures.C at line 95.
[6] 
FOAM parallel run exiting
[6] 
[18] 
[18] --> FOAM FATAL IO ERROR: 
[18] Could not open "/share/storage/finzeo/Mallas/test/GTS_ofcom10/processor18/constant/triSurface/GTS-Storms-v9.eMesh"
[18] 
[18] file: IOstream.castellatedMeshControls.features
[18] 
[18]     From function void Foam::refinementFeatures::read(const Foam::objectRegistry&, const Foam::PtrList<Foam::dictionary>&)
[18]     in file refinementFeatures/refinementFeatures.C at line 95.
[18] 
FOAM parallel run exiting
[18] 
[11] 
[17] 
[11] 
[11] --> FOAM FATAL IO ERROR: 
[11] Could not open "/share/storage/finzeo/Mallas/test/GTS_ofcom10/processor11/constant/triSurface/GTS-Storms-v9.eMesh"
[11] 
[11] file: IOstream.castellatedMeshControls.features
[11] 
[11]     From function void Foam::refinementFeatures::read(const Foam::objectRegistry&, const Foam::PtrList<Foam::dictionary>&)
[11]     in file refinementFeatures/refinementFeatures.C at line 95.[7] 
[7] 
[7] --> FOAM FATAL IO ERROR: 
[7] Could not open "/share/storage/finzeo/Mallas/test/GTS_ofcom10/processor7/constant/triSurface/GTS-Storms-v9.eMesh"
[7] [17] 
[17] --> FOAM FATAL IO ERROR: 
[17] Could not open "/share/storage/finzeo/Mallas/test/GTS_ofcom10/processor17/constant/triSurface/GTS-Storms-v9.eMesh"
[17] 
[17] file: IOstream.castellatedMeshControls.features
[17] 
[17]     From function void Foam::refinementFeatures::read(const Foam::objectRegistry&, const Foam::PtrList<Foam::dictionary>&)
[17]     in file refinementFeatures/refinementFeatures.C at line 95.
[17] 
FOAM parallel run exiting
[17] 

[11] 
FOAM parallel run exiting
[11] 

[7] file: IOstream.castellatedMeshControls.features
[7] 
[7]     From function void Foam::refinementFeatures::read(const Foam::objectRegistry&, const Foam::PtrList<Foam::dictionary>&)
[7]     in file refinementFeatures/refinementFeatures.C at line 95.
[7] 
FOAM parallel run exiting
[7] 
[16] [3] 
[3] 
[3] --> FOAM FATAL IO ERROR: 
[3] Could not open "/share/storage/finzeo/Mallas/test/GTS_ofcom10/processor3/constant/triSurface/GTS-Storms-v9.eMesh"
[3] 
[3] file: IOstream.castellatedMeshControls.features
[16] 
[16] --> FOAM FATAL IO ERROR: 
[16] Could not open "/share/storage/finzeo/Mallas/test/GTS_ofcom10/processor16/constant/triSurface/GTS-Storms-v9.eMesh"
[16] 
[16] file: IOstream.castellatedMeshControls.features
[16] 
[16]     From function void Foam::refinementFeatures::read(const Foam::objectRegistry&, const Foam::PtrList<Foam::dictionary>&)
[16]     in file refinementFeatures/refinementFeatures.C at line 95.
[3] 
[3]     From function void Foam::refinementFeatures::read(const Foam::objectRegistry&, const Foam::PtrList<Foam::dictionary>&)
[3]     in file refinementFeatures/refinementFeatures.C at line 95.
[3] 
FOAM parallel run exiting
[3] 
[4] 
[4] 
[4] --> FOAM FATAL IO ERROR: 
[4] Could not open "/share/storage/finzeo/Mallas/test/GTS_ofcom10/processor4/constant/triSurface/GTS-Storms-v9.eMesh"
[4] 
[4] file: IOstream.castellatedMeshControls.features
[16] 
FOAM parallel run exiting
[16] 
[2] 
[2] 
[2] --> FOAM FATAL IO ERROR: 
[2] Could not open "/share/storage/finzeo/Mallas/test/GTS_ofcom10/processor2/constant/triSurface/GTS-Storms-v9.eMesh"
[2] 
[2] file: IOstream.castellatedMeshControls.features
[2] 
[2]     From function void Foam::refinementFeatures::read(const Foam::objectRegistry&, const Foam::PtrList<Foam::dictionary>&)
[2]     in file refinementFeatures/refinementFeatures.C at line 95.
[2] 
FOAM parallel run exiting
[2] 

[4] 
[4]     From function void Foam::refinementFeatures::read(const Foam::objectRegistry&, const Foam::PtrList<Foam::dictionary>&)
[4]     in file refinementFeatures/refinementFeatures.C at line 95.
[4] 
FOAM parallel run exiting
[4] 
[32] 
[32] 
[32] --> FOAM FATAL IO ERROR: 
[32] Could not open "/share/storage/finzeo/Mallas/test/GTS_ofcom10/processor32/constant/triSurface/GTS-Storms-v9.eMesh"
[32] 
[32] file: IOstream.castellatedMeshControls.features
[32] 
[32]     From function void Foam::refinementFeatures::read(const Foam::objectRegistry&, const Foam::PtrList<Foam::dictionary>&)
[32]     in file refinementFeatures/refinementFeatures.C at line 95.
[32] 
FOAM parallel run exiting
[32] 
[1] 
[1] 
[1] --> FOAM FATAL IO ERROR: 
[1] Could not open "/share/storage/finzeo/Mallas/test/GTS_ofcom10/processor1/constant/triSurface/GTS-Storms-v9.eMesh"
[1] 
[1] file: IOstream.castellatedMeshControls.features
[1] 
[1]     From function void Foam::refinementFeatures::read(const Foam::objectRegistry&, const Foam::PtrList<Foam::dictionary>&)
[1]     in file refinementFeatures/refinementFeatures.C at line 95.
[1] 
FOAM parallel run exiting
[1] 
[12] 
[12] 
[12] --> FOAM FATAL IO ERROR: 
[12] Could not open "/share/storage/finzeo/Mallas/test/GTS_ofcom10/processor12/constant/triSurface/GTS-Storms-v9.eMesh"
[12] 
[12] file: IOstream.castellatedMeshControls.features
[12] 
[12]     From function void Foam::refinementFeatures::read(const Foam::objectRegistry&, const Foam::PtrList<Foam::dictionary>&)
[12]     in file refinementFeatures/refinementFeatures.C at line 95.
[12] 
FOAM parallel run exiting
[12] 
[14] 
[14] 
[14] --> FOAM FATAL IO ERROR: 
[14] Could not open "/share/storage/finzeo/Mallas/test/GTS_ofcom10/processor14/constant/triSurface/GTS-Storms-v9.eMesh"
[14] 
[14] file: IOstream.castellatedMeshControls.features
[14] 
[14]     From function void Foam::refinementFeatures::read(const Foam::objectRegistry&, const Foam::PtrList<Foam::dictionary>&)
[14]     in file refinementFeatures/refinementFeatures.C at line 95.
[14] 
FOAM parallel run exiting
[14] 
[34] 
[34] 
[34] --> FOAM FATAL IO ERROR: 
[34] Could not open "/share/storage/finzeo/Mallas/test/GTS_ofcom10/processor34/constant/triSurface/GTS-Storms-v9.eMesh"
[34] 
[34] file: IOstream.castellatedMeshControls.features
[34] 
[34]     From function void Foam::refinementFeatures::read(const Foam::objectRegistry&, const Foam::PtrList<Foam::dictionary>&)
[34]     in file refinementFeatures/refinementFeatures.C at line 95.
[34] 
FOAM parallel run exiting
[34] 
[5] 
[5] 
[5] --> FOAM FATAL IO ERROR: 
[5] Could not open "/share/storage/finzeo/Mallas/test/GTS_ofcom10/processor5/constant/triSurface/GTS-Storms-v9.eMesh"
[5] 
[5] file: IOstream.castellatedMeshControls.features
[5] 
[5]     From function void Foam::refinementFeatures::read(const Foam::objectRegistry&, const Foam::PtrList<Foam::dictionary>&)
[5]     in file refinementFeatures/refinementFeatures.C at line 95.
[9] 
[9] 
[9] --> FOAM FATAL IO ERROR: 
[9] Could not open "/share/storage/finzeo/Mallas/test/GTS_ofcom10/processor9/constant/triSurface/GTS-Storms-v9.eMesh"
[9] 
[9] file: IOstream.castellatedMeshControls.features
[9] 
[9]     From function void Foam::refinementFeatures::read(const Foam::objectRegistry&, const Foam::PtrList<Foam::dictionary>&)
[9]     in file refinementFeatures/refinementFeatures.C at line 95.
[9] 
FOAM parallel run exiting
[9] 
[10] 
[10] 
[10] --> FOAM FATAL IO ERROR: 
[10] Could not open "/share/storage/finzeo/Mallas/test/GTS_ofcom10/processor10/constant/triSurface/GTS-Storms-v9.eMesh"
[10] 
[10] file: IOstream.castellatedMeshControls.features
[10] 
[10]     From function void Foam::refinementFeatures::read(const Foam::objectRegistry&, const Foam::PtrList<Foam::dictionary>&)
[10]     in file refinementFeatures/refinementFeatures.C at line 95.
[10] 
FOAM parallel run exiting
[10] 
[13] 
[13] 
[13] --> FOAM FATAL IO ERROR: 
[13] Could not open "/share/storage/finzeo/Mallas/test/GTS_ofcom10/processor13/constant/triSurface/GTS-Storms-v9.eMesh"
[13] 
[13] file: IOstream.castellatedMeshControls.features
[13] 
[13]     From function void Foam::refinementFeatures::read(const Foam::objectRegistry&, const Foam::PtrList<Foam::dictionary>&)
[13]     in file refinementFeatures/refinementFeatures.C at line 95.
[13] 
FOAM parallel run exiting
[13] 
[19] 
[19] 
[19] --> FOAM FATAL IO ERROR: 
[19] Could not open "/share/storage/finzeo/Mallas/test/GTS_ofcom10/processor19/constant/triSurface/GTS-Storms-v9.eMesh"
[19] 
[19] file: IOstream.castellatedMeshControls.features
[19] 
[28] 
[28] 
[28] --> FOAM FATAL IO ERROR: 
[28] Could not open "/share/storage/finzeo/Mallas/test/GTS_ofcom10/processor28/constant/triSurface/GTS-Storms-v9.eMesh"
[28] 
[28] file: IOstream.castellatedMeshControls.features
[28] 
[28]     From function void Foam::refinementFeatures::read(const Foam::objectRegistry&, const Foam::PtrList<Foam::dictionary>&)
[28]     in file refinementFeatures/refinementFeatures.C at line 95.
[28] 
FOAM parallel run exiting
[28] 
[19]     From function void Foam::refinementFeatures::read(const Foam::objectRegistry&, const Foam::PtrList<Foam::dictionary>&)
[19]     in file refinementFeatures/refinementFeatures.C at line 95.
[19] 
FOAM parallel run exiting
[19] 
[5] 
FOAM parallel run exiting
[5] 
[36] 
[36] 
[36] --> FOAM FATAL IO ERROR: 
[36] Could not open "/share/storage/finzeo/Mallas/test/GTS_ofcom10/processor36/constant/triSurface/GTS-Storms-v9.eMesh"
[36] 
[36] file: IOstream.castellatedMeshControls.features
[36] 
[36]     From function void Foam::refinementFeatures::read(const Foam::objectRegistry&, const Foam::PtrList<Foam::dictionary>&)
[36]     in file refinementFeatures/refinementFeatures.C at line 95.
[36] 
FOAM parallel run exiting
[36] 
[38] 
[38] 
[38] --> FOAM FATAL IO ERROR: 
[38] Could not open "/share/storage/finzeo/Mallas/test/GTS_ofcom10/processor38/constant/triSurface/GTS-Storms-v9.eMesh"
[38] 
[38] file: IOstream.castellatedMeshControls.features
[38] 
[38]     From function void Foam::refinementFeatures::read(const Foam::objectRegistry&, const Foam::PtrList<Foam::dictionary>&)
[38]     in file refinementFeatures/refinementFeatures.C at line 95.
[38] 
FOAM parallel run exiting
[38] 
[24] 
[24] 
[24] --> FOAM FATAL IO ERROR: 
[24] Could not open "/share/storage/finzeo/Mallas/test/GTS_ofcom10/processor24/constant/triSurface/GTS-Storms-v9.eMesh"
[24] 
[24] file: IOstream.castellatedMeshControls.features
[24] 
[24]     From function void Foam::refinementFeatures::read(const Foam::objectRegistry&, const Foam::PtrList<Foam::dictionary>&)
[24]     in file refinementFeatures/refinementFeatures.C at line 95.
[24] 
FOAM parallel run exiting
[24] 
[31] 
[31] 
[31] --> FOAM FATAL IO ERROR: 
[31] Could not open "/share/storage/finzeo/Mallas/test/GTS_ofcom10/processor31/constant/triSurface/GTS-Storms-v9.eMesh"
[31] 
[31] file: IOstream.castellatedMeshControls.features
[31] 
[31]     From function void Foam::refinementFeatures::read(const Foam::objectRegistry&, const Foam::PtrList<Foam::dictionary>&)
[31]     in file refinementFeatures/refinementFeatures.C at line 95.
[31] 
FOAM parallel run exiting
[23] 
[23] 
[23] --> FOAM FATAL IO ERROR: 
[23] Could not open "/share/storage/finzeo/Mallas/test/GTS_ofcom10/processor23/constant/triSurface/GTS-Storms-v9.eMesh"
[35] 
[35] 
[35] --> FOAM FATAL IO ERROR: 
[35] Could not open "/share/storage/finzeo/Mallas/test/GTS_ofcom10/processor35/constant/triSurface/GTS-Storms-v9.eMesh"
[35] 
[35] file: IOstream.castellatedMeshControls.features
[31] 
[35] 
[35]     From function void Foam::refinementFeatures::read(const Foam::objectRegistry&, const Foam::PtrList<Foam::dictionary>&)
[35]     in file refinementFeatures/refinementFeatures.C at line 95.
[35] 
FOAM parallel run exiting
[35] 
[23] 
[23] file: IOstream.castellatedMeshControls.features
[23] 
[23]     From function void Foam::refinementFeatures::read(const Foam::objectRegistry&, const Foam::PtrList<Foam::dictionary>&)
[23]     in file refinementFeatures/refinementFeatures.C at line 95.
[23] 
FOAM parallel run exiting
[23] 
[21] 
[21] 
[21] --> FOAM FATAL IO ERROR: 
[21] Could not open "/share/storage/finzeo/Mallas/test/GTS_ofcom10/processor21/constant/triSurface/GTS-Storms-v9.eMesh"
[21] 
[21] file: IOstream.castellatedMeshControls.features
[21] 
[21]     From function void Foam::refinementFeatures::read(const Foam::objectRegistry&, const Foam::PtrList<Foam::dictionary>&)
[21]     in file refinementFeatures/refinementFeatures.C at line 95.
[21] 
FOAM parallel run exiting
[21] 
[33] 
[33] 
[33] --> FOAM FATAL IO ERROR: 
[33] Could not open "/share/storage/finzeo/Mallas/test/GTS_ofcom10/processor33/constant/triSurface/GTS-Storms-v9.eMesh"
[33] 
[33] file: IOstream.castellatedMeshControls.features
[33] 
[33]     From function void Foam::refinementFeatures::read(const Foam::objectRegistry&, const Foam::PtrList<Foam::dictionary>&)
[33]     in file refinementFeatures/refinementFeatures.C at line 95.
[33] 
FOAM parallel run exiting
[33] 
[27] 
[27] 
[27] --> FOAM FATAL IO ERROR: 
[27] Could not open "/share/storage/finzeo/Mallas/test/GTS_ofcom10/processor27/constant/triSurface/GTS-Storms-v9.eMesh"
[27] 
[27] file: IOstream.castellatedMeshControls.features
[27] 
[27]     From function void Foam::refinementFeatures::read(const Foam::objectRegistry&, const Foam::PtrList<Foam::dictionary>&)
[27]     in file refinementFeatures/refinementFeatures.C at line 95.
[27] 
FOAM parallel run exiting
[27] 
[37] 
[37] 
[37] --> FOAM FATAL IO ERROR: 
[37] Could not open "/share/storage/finzeo/Mallas/test/GTS_ofcom10/processor37/constant/triSurface/GTS-Storms-v9.eMesh"
[37] 
[37] file: IOstream.castellatedMeshControls.features
[37] 
[37]     From function void Foam::refinementFeatures::read(const Foam::objectRegistry&, const Foam::PtrList<Foam::dictionary>&)
[37]     in file refinementFeatures/refinementFeatures.C at line 95.
[37] 
FOAM parallel run exiting
[37] 
[39] 
[39] 
[39] --> FOAM FATAL IO ERROR: 
[39] Could not open "/share/storage/finzeo/Mallas/test/GTS_ofcom10/processor39/constant/triSurface/GTS-Storms-v9.eMesh"
[39] 
[39] file: IOstream.castellatedMeshControls.features
[39] 
[39]     From function void Foam::refinementFeatures::read(const Foam::objectRegistry&, const Foam::PtrList<Foam::dictionary>&)
[39]     in file refinementFeatures/refinementFeatures.C at line 95.
[39] 
FOAM parallel run exiting
[39] 
[22] 
[22] 
[22] --> FOAM FATAL IO ERROR: 
[22] Could not open "/share/storage/finzeo/Mallas/test/GTS_ofcom10/processor22/constant/triSurface/GTS-Storms-v9.eMesh"
[22] 
[22] file: IOstream.castellatedMeshControls.features
[22] 
[22]     From function void Foam::refinementFeatures::read(const Foam::objectRegistry&, const Foam::PtrList<Foam::dictionary>&)
[22]     in file refinementFeatures/refinementFeatures.C at line 95.
[22] 
FOAM parallel run exiting
[22] 
[25] 
[25] 
[25] --> FOAM FATAL IO ERROR: 
[25] Could not open "/share/storage/finzeo/Mallas/test/GTS_ofcom10/processor25/constant/triSurface/GTS-Storms-v9.eMesh"
[25] 
[25] file: IOstream.castellatedMeshControls.features
[25] 
[25]     From function void Foam::refinementFeatures::read(const Foam::objectRegistry&, const Foam::PtrList<Foam::dictionary>&)
[25]     in file refinementFeatures/refinementFeatures.C at line 95.
[25] 
FOAM parallel run exiting
[25] 
[26] 
[26] 
[26] --> FOAM FATAL IO ERROR: 
[26] Could not open "/share/storage/finzeo/Mallas/test/GTS_ofcom10/processor26/constant/triSurface/GTS-Storms-v9.eMesh"
[26] 
[26] file: IOstream.castellatedMeshControls.features
[26] 
[26] [15] 
[15] 
[15] --> FOAM FATAL IO ERROR: 
[15] Could not open "/share/storage/finzeo/Mallas/test/GTS_ofcom10/processor15/constant/triSurface/GTS-Storms-v9.eMesh"
[15] 
[15] file: IOstream.castellatedMeshControls.features
[15] 
[15]     From function void Foam::refinementFeatures::read(const Foam::objectRegistry&, const Foam::PtrList<Foam::dictionary>&)
[15]     in file refinementFeatures/refinementFeatures.C at line 95.
[15] 
FOAM parallel run exiting
[15] 
[0] 
[0] 
[0] --> FOAM FATAL IO ERROR: 
[0] Could not open "/share/storage/finzeo/Mallas/test/GTS_ofcom10/processor0/constant/triSurface/GTS-Storms-v9.eMesh"
[0] 
[0] file: /share/storage/finzeo/Mallas/test/GTS_ofcom10/system/snappyHexMeshLayersDict.castellatedMeshControls.features
[0] 
[0]     From function void Foam::refinementFeatures::read(const Foam::objectRegistry&, const Foam::PtrList<Foam::dictionary>&)
[0]     in file refinementFeatures/refinementFeatures.C at line 95.
[0] 
FOAM parallel run exiting
[0] 
[8] 
[8] 
[8] --> FOAM FATAL IO ERROR: 
[8] Could not open "/share/storage/finzeo/Mallas/test/GTS_ofcom10/processor8/constant/triSurface/GTS-Storms-v9.eMesh"
[8] 
[8] file: IOstream.castellatedMeshControls.features
[8] 
[8]     From function void Foam::refinementFeatures::read(const Foam::objectRegistry&, const Foam::PtrList<Foam::dictionary>&)
[8]     in file refinementFeatures/refinementFeatures.C at line 95.
[8] 
FOAM parallel run exiting
[8] 
[29] 
[29] 
[29] --> FOAM FATAL IO ERROR: 
[29] Could not open "/share/storage/finzeo/Mallas/test/GTS_ofcom10/processor29/constant/triSurface/GTS-Storms-v9.eMesh"
[29] 
[29] file: IOstream.castellatedMeshControls.features
[29] 
[29]     From function void Foam::refinementFeatures::read(const Foam::objectRegistry&, const Foam::PtrList<Foam::dictionary>&)
[29]     in file refinementFeatures/refinementFeatures.C at line 95.
[29] 
FOAM parallel run exiting
[29] 
[30] 
[30] 
[30] --> FOAM FATAL IO ERROR: 
[30] Could not open "/share/storage/finzeo/Mallas/test/GTS_ofcom10/processor30/constant/triSurface/GTS-Storms-v9.eMesh"
[30] 
[30] file: IOstream.castellatedMeshControls.features
[30] 
[30]     From function void Foam::refinementFeatures::read(const Foam::objectRegistry&, const Foam::PtrList<Foam::dictionary>&)
[30]     in file refinementFeatures/refinementFeatures.C at line 95.
[30] 
FOAM parallel run exiting
[30] 
    From function void Foam::refinementFeatures::read(const Foam::objectRegistry&, const Foam::PtrList<Foam::dictionary>&)
[26]     in file refinementFeatures/refinementFeatures.C at line 95.
[26] 
FOAM parallel run exiting
[26] 
[20] 
[20] 
[20] --> FOAM FATAL IO ERROR: 
[20] Could not open "/share/storage/finzeo/Mallas/test/GTS_ofcom10/processor20/constant/triSurface/GTS-Storms-v9.eMesh"
[20] 
[20] file: IOstream.castellatedMeshControls.features
[20] 
[20]     From function void Foam::refinementFeatures::read(const Foam::objectRegistry&, const Foam::PtrList<Foam::dictionary>&)
[20]     in file refinementFeatures/refinementFeatures.C at line 95.
[20] 
FOAM parallel run exiting
[20] 
[compute-0-32.local:76772] 39 more processes have sent help message help-mpi-api.txt / mpi-abort
[compute-0-32.local:76772] Set MCA parameter "orte_base_help_aggregate" to 0 to see all help / error messages
