/*---------------------------------------------------------------------------*\
| =========                 |                                                 |
| \\      /  F ield         | OpenFOAM: The Open Source CFD Toolbox           |
|  \\    /   O peration     | Version:  v1812                                 |
|   \\  /    A nd           | Web:      www.OpenFOAM.com                      |
|    \\/     M anipulation  |                                                 |
\*---------------------------------------------------------------------------*/
Build  : v1812 OPENFOAM=1812
Arch   : "LSB;label=32;scalar=64"
Exec   : snappyHexMesh -parallel -decomposeParDict system/decomposeParDict.60 -dict system/snappyHexMeshLayersDict
Date   : Mar 22 2023
Time   : 11:49:45
Host   : compute-0-23.local
PID    : 156637
I/O    : uncollated
Case   : /share/storage/finzeo/Mallas/test/GTS_ofcom5
nProcs : 60
Hosts  :
(
    (compute-0-23.local 20)
    (compute-0-24.local 20)
    (compute-0-25.local 20)
)
Pstream initialized with:
    floatTransfer      : 0
    nProcsSimpleSum    : 0
    commsType          : nonBlocking
    polling iterations : 0
trapFpe: Floating point exception trapping enabled (FOAM_SIGFPE).
fileModificationChecking : Monitoring run-time modified files using timeStampMaster (fileModificationSkew 10)
allowSystemOperations : Allowing user-supplied system call operations

// * * * * * * * * * * * * * * * * * * * * * * * * * * * * * * * * * * * * * //
Create time

Create mesh for time = 2

Read mesh in = 1.22 s

Overall mesh bounding box  : (-7.33423 -1.55305 -0.0762) (4.37197 1.55305 2.0574)
Relative tolerance         : 1e-06
Absolute matching distance : 1.22978e-05

Reading refinement surfaces.
Read refinement surfaces in = 0.15 s

Reading refinement shells.
Refinement level according to distance to GTS-Storms-v8.stl
    level 5 for all cells within 0.015 metre.
Refinement level 1 for all cells inside refinementBox1
Refinement level 2 for all cells inside refinementBox2
Refinement level 3 for all cells inside refinementBox3
Read refinement shells in = 0 s

Setting refinement level of surface to be consistent with shells.
For geometry GTS-Storms-v8.stl detected 0 uncached triangles out of 17488
Checked shell refinement in = 0.17 s

Reading features.
Read edgeMesh GTS-Storms-v8.eMesh
    points      : 1368
    edges       : 1380
    boundingBox : (-2.4763 -0.161925 -0.0762) (0 0.161925 0.4508)

Refinement level according to distance to "GTS-Storms-v8.eMesh" (1368 points, 1380 edges).
    level 6 for all cells within 0.012 metre.
Read features in = 0.01 s


Determining initial surface intersections
-----------------------------------------

Edge intersection testing:
    Number of edges             : 40310250
    Number of edges to retest   : 40310250
    Number of intersected edges : 1011280
Calculated surface intersections in = 4.5 s

Initial mesh : cells:13024422  faces:40310250  points:14269082
Cells per refinement level:
    0	104568
    1	327394
    2	1166128
    3	3728110
    4	688772
    5	4524405
    6	2485045

Adding patches for surface regions
----------------------------------

Patch Type                Region                        
----- ----                ------                        
gtsModel:

2     wall                gtsModel                      

inlet:

0     patch               inlet                         

outlet:

1     patch               outlet                        

left:

3     wall                left                          

right:

4     wall                right                         

top:

5     wall                top                           

floor:

6     wall                floor                         

Added patches in = 0 s

Edge intersection testing:
    Number of edges             : 40310250
    Number of edges to retest   : 1012874
    Number of intersected edges : 1012816
Selecting decompositionMethod hierarchical [60]
Layer thickness specified as first layer and expansion ratio.

Shrinking and layer addition phase
----------------------------------

Using mesh parameters 
{
    maxNonOrtho     65;
    maxBoundarySkewness 20;
    maxInternalSkewness 4;
    maxConcave      80;
    minVol          1e-13;
    minTetQuality   -1e+30;
    minArea         -1;
    minTwist        0.02;
    minDeterminant  1e-05;
    minFaceWeight   0.02;
    minVolRatio     0.01;
    minTriangleTwist -1;
    nSmoothScale    4;
    errorReduction  0.75;
    relaxed
    {
        maxNonOrtho     75;
    }
}



Merging all faces of a cell
---------------------------
    - which are on the same patch
    - which make an angle < 330 degrees (cos:0.866025)
    - as long as the resulting face doesn't become concave by more than 90 degrees
      (0=straight, 180=fully concave)

Merging 56 sets of faces.

Edge intersection testing:
    Number of edges             : 40310190
    Number of edges to retest   : 443
    Number of intersected edges : 1012756

Undo iteration 0
----------------
Checking faces in error :
    non-orthogonality > 65  degrees                        : 0
    faces with face pyramid volume < 1e-13                 : 0
    faces with concavity > 80  degrees                     : 0
    faces with skewness > 4   (internal) or 20  (boundary) : 0
    faces with interpolation weights (0..1)  < 0.02        : 0
    faces with volume ratio of neighbour cells < 0.01      : 0
    faces with face twist < 0.02                           : 2
    faces on cells with determinant < 1e-05                : 0
Masters that need to be restored:2
Edge intersection testing:
    Number of edges             : 40310192
    Number of edges to retest   : 12
    Number of intersected edges : 1012758


Undo iteration 1
----------------
Checking faces in error :
    non-orthogonality > 65  degrees                        : 0
    faces with face pyramid volume < 1e-13                 : 0
    faces with concavity > 80  degrees                     : 0
    faces with skewness > 4   (internal) or 20  (boundary) : 0
    faces with interpolation weights (0..1)  < 0.02        : 0
    faces with volume ratio of neighbour cells < 0.01      : 0
    faces with face twist < 0.02                           : 0
    faces on cells with determinant < 1e-05                : 0

Merging all points on surface that
- are used by only two boundary faces and
- make an angle with a cosine of more than 0.866025.

Removing 55 straight edge points ...

Edge intersection testing:
    Number of edges             : 40310192
    Number of edges to retest   : 643
    Number of intersected edges : 1012758

Undo iteration 0
----------------
Checking faces in error :
    non-orthogonality > 65  degrees                        : 0
    faces with face pyramid volume < 1e-13                 : 0
    faces with concavity > 80  degrees                     : 0
    faces with skewness > 4   (internal) or 20  (boundary) : 0
    faces with interpolation weights (0..1)  < 0.02        : 0
    faces with volume ratio of neighbour cells < 0.01      : 0
    faces with face twist < 0.02                           : 0
    faces on cells with determinant < 1e-05                : 0

Checking mesh manifoldness ...
Outside of mesh is multiply connected across edges or points.
This is not a fatal error but might cause some unexpected behaviour.


Checking initial mesh ...
Checking faces in error :
    non-orthogonality > 65  degrees                        : 0
    faces with face pyramid volume < 1e-13                 : 0
    faces with concavity > 80  degrees                     : 0
    faces with skewness > 4   (internal) or 20  (boundary) : 0
    faces with interpolation weights (0..1)  < 0.02        : 0
    faces with volume ratio of neighbour cells < 0.01      : 0
    faces with face twist < 0.02                           : 0
    faces on cells with determinant < 1e-05                : 0
Detected 0 illegal faces (concave, zero area or negative cell pyramid volume)
Duplicating 0 points on faceZones of type boundary

Handling points with inconsistent layer specification ...
dupNonManifoldPoints : Found : 0 non-manifold points (out of 15489618)

Adding in total 0 inter-processor patches to handle extrusion of non-manifold processor boundaries.

Handling points with inconsistent layer specification ...

Handling non-manifold points ...

Checking patch manifoldness ...
Outside of local patch is multiply connected across edges or points at 0 points.
Set displacement to zero for all 0 non-manifold points

Handling feature edges (angle < 330) ...
Set displacement to zero for points on 11522 feature edges

patch    faces    layers avg thickness[m]
                         near-wall overall
-----    -----    ------ --------- -------
gtsModel 901942   14     0.00014   0.00561 

Selecting externalDisplacementMeshMover displacementMotionSolver
Selecting motion solver: displacementLaplacian
Selecting motion diffusion: quadratic
Selecting motion diffusion: inverseDistance
Selecting patchDistMethod meshWave

Layer addition iteration 0
--------------------------

Determining displacement for added points according to pointNormal ...
Detected 0 points with point normal pointing through faces.
Reset displacement at 0 points to average of surrounding points.

fieldSmoother : Smoothing field ...
    Iteration 0   residual 1.04428e-05
GAMG:  Solving for cellDisplacementx, Initial residual = 1, Final residual = 1.43509e-17, No Iterations 1
GAMG:  Solving for cellDisplacementy, Initial residual = 1, Final residual = 1.30453e-17, No Iterations 1
GAMG:  Solving for cellDisplacementz, Initial residual = 1, Final residual = 1.31057e-17, No Iterations 1
displacementMotionSolver : Moving mesh ...
displacementMotionSolver : Iteration 0
Moving mesh using displacement scaling : min:1  max:1
Checking faces in error :
    non-orthogonality > 65  degrees                        : 48594
    faces with face pyramid volume < 1e-13                 : 2296
    faces with concavity > 80  degrees                     : 1
    faces with skewness > 4   (internal) or 20  (boundary) : 2
    faces with interpolation weights (0..1)  < 0.02        : 12
    faces with volume ratio of neighbour cells < 0.01      : 3
    faces with face twist < 0.02                           : 411
    faces on cells with determinant < 1e-05                : 3
displacementMotionSolver : Iteration 1
Moving mesh using displacement scaling : min:0.75  max:1
Checking faces in error :
    non-orthogonality > 65  degrees                        : 42886
    faces with face pyramid volume < 1e-13                 : 1960
    faces with concavity > 80  degrees                     : 1
    faces with skewness > 4   (internal) or 20  (boundary) : 0
    faces with interpolation weights (0..1)  < 0.02        : 24
    faces with volume ratio of neighbour cells < 0.01      : 33
    faces with face twist < 0.02                           : 2411
    faces on cells with determinant < 1e-05                : 1
displacementMotionSolver : Iteration 2
Moving mesh using displacement scaling : min:0.5625  max:1
Checking faces in error :
    non-orthogonality > 65  degrees                        : 23403
    faces with face pyramid volume < 1e-13                 : 2059
    faces with concavity > 80  degrees                     : 310
    faces with skewness > 4   (internal) or 20  (boundary) : 4
    faces with interpolation weights (0..1)  < 0.02        : 21
    faces with volume ratio of neighbour cells < 0.01      : 32
    faces with face twist < 0.02                           : 1804
    faces on cells with determinant < 1e-05                : 4
displacementMotionSolver : Iteration 3
Moving mesh using displacement scaling : min:0.421875  max:1
Checking faces in error :
    non-orthogonality > 65  degrees                        : 9725
    faces with face pyramid volume < 1e-13                 : 301
    faces with concavity > 80  degrees                     : 313
    faces with skewness > 4   (internal) or 20  (boundary) : 0
    faces with interpolation weights (0..1)  < 0.02        : 12
    faces with volume ratio of neighbour cells < 0.01      : 97
    faces with face twist < 0.02                           : 1049
    faces on cells with determinant < 1e-05                : 1
displacementMotionSolver : Iteration 4
Moving mesh using displacement scaling : min:0.316406  max:1
Checking faces in error :
    non-orthogonality > 65  degrees                        : 2660
    faces with face pyramid volume < 1e-13                 : 405
    faces with concavity > 80  degrees                     : 405
    faces with skewness > 4   (internal) or 20  (boundary) : 1
    faces with interpolation weights (0..1)  < 0.02        : 9
    faces with volume ratio of neighbour cells < 0.01      : 43
    faces with face twist < 0.02                           : 778
    faces on cells with determinant < 1e-05                : 1
displacementMotionSolver : Iteration 5
Moving mesh using displacement scaling : min:0.237305  max:1
Checking faces in error :
    non-orthogonality > 65  degrees                        : 1414
    faces with face pyramid volume < 1e-13                 : 389
    faces with concavity > 80  degrees                     : 344
    faces with skewness > 4   (internal) or 20  (boundary) : 0
    faces with interpolation weights (0..1)  < 0.02        : 6
    faces with volume ratio of neighbour cells < 0.01      : 42
    faces with face twist < 0.02                           : 467
    faces on cells with determinant < 1e-05                : 1
displacementMotionSolver : Iteration 6
Moving mesh using displacement scaling : min:0.177979  max:1
Checking faces in error :
    non-orthogonality > 65  degrees                        : 838
    faces with face pyramid volume < 1e-13                 : 268
    faces with concavity > 80  degrees                     : 256
    faces with skewness > 4   (internal) or 20  (boundary) : 0
    faces with interpolation weights (0..1)  < 0.02        : 7
    faces with volume ratio of neighbour cells < 0.01      : 62
    faces with face twist < 0.02                           : 354
    faces on cells with determinant < 1e-05                : 0
displacementMotionSolver : Iteration 7
Moving mesh using displacement scaling : min:0.133484  max:1
Checking faces in error :
    non-orthogonality > 65  degrees                        : 536
    faces with face pyramid volume < 1e-13                 : 192
    faces with concavity > 80  degrees                     : 216
    faces with skewness > 4   (internal) or 20  (boundary) : 1
    faces with interpolation weights (0..1)  < 0.02        : 4
    faces with volume ratio of neighbour cells < 0.01      : 46
    faces with face twist < 0.02                           : 280
    faces on cells with determinant < 1e-05                : 0
displacementMotionSolver : Iteration 8
Moving mesh using displacement scaling : min:0.100113  max:1
Checking faces in error :
    non-orthogonality > 65  degrees                        : 385
    faces with face pyramid volume < 1e-13                 : 198
    faces with concavity > 80  degrees                     : 124
    faces with skewness > 4   (internal) or 20  (boundary) : 0
    faces with interpolation weights (0..1)  < 0.02        : 9
    faces with volume ratio of neighbour cells < 0.01      : 9
    faces with face twist < 0.02                           : 228
    faces on cells with determinant < 1e-05                : 0
displacementMotionSolver : Iteration 9
Moving mesh using displacement scaling : min:0.0750847  max:1
Checking faces in error :
    non-orthogonality > 65  degrees                        : 290
    faces with face pyramid volume < 1e-13                 : 154
    faces with concavity > 80  degrees                     : 35
    faces with skewness > 4   (internal) or 20  (boundary) : 0
    faces with interpolation weights (0..1)  < 0.02        : 3
    faces with volume ratio of neighbour cells < 0.01      : 12
    faces with face twist < 0.02                           : 118
    faces on cells with determinant < 1e-05                : 0
displacementMotionSolver : Iteration 10
displacementMotionSolver : Displacement scaling for error reduction set to 0.
Moving mesh using displacement scaling : min:0.0563135  max:1
Checking faces in error :
    non-orthogonality > 65  degrees                        : 203
    faces with face pyramid volume < 1e-13                 : 151
    faces with concavity > 80  degrees                     : 28
    faces with skewness > 4   (internal) or 20  (boundary) : 0
    faces with interpolation weights (0..1)  < 0.02        : 4
    faces with volume ratio of neighbour cells < 0.01      : 6
    faces with face twist < 0.02                           : 56
    faces on cells with determinant < 1e-05                : 0
displacementMotionSolver : Iteration 11
Moving mesh using displacement scaling : min:0  max:1
Checking faces in error :
    non-orthogonality > 65  degrees                        : 664
    faces with face pyramid volume < 1e-13                 : 169
    faces with concavity > 80  degrees                     : 27
    faces with skewness > 4   (internal) or 20  (boundary) : 0
    faces with interpolation weights (0..1)  < 0.02        : 0
    faces with volume ratio of neighbour cells < 0.01      : 1
    faces with face twist < 0.02                           : 40
    faces on cells with determinant < 1e-05                : 0
displacementMotionSolver : Iteration 12
Moving mesh using displacement scaling : min:0  max:1
Checking faces in error :
    non-orthogonality > 65  degrees                        : 554
    faces with face pyramid volume < 1e-13                 : 38
    faces with concavity > 80  degrees                     : 19
    faces with skewness > 4   (internal) or 20  (boundary) : 0
    faces with interpolation weights (0..1)  < 0.02        : 0
    faces with volume ratio of neighbour cells < 0.01      : 3
    faces with face twist < 0.02                           : 41
    faces on cells with determinant < 1e-05                : 0
displacementMotionSolver : Iteration 13
Moving mesh using displacement scaling : min:0  max:1
Checking faces in error :
    non-orthogonality > 65  degrees                        : 937
    faces with face pyramid volume < 1e-13                 : 49
    faces with concavity > 80  degrees                     : 36
    faces with skewness > 4   (internal) or 20  (boundary) : 0
    faces with interpolation weights (0..1)  < 0.02        : 1
    faces with volume ratio of neighbour cells < 0.01      : 5
    faces with face twist < 0.02                           : 61
    faces on cells with determinant < 1e-05                : 0
displacementMotionSolver : Iteration 14
Moving mesh using displacement scaling : min:0  max:1
Checking faces in error :
    non-orthogonality > 65  degrees                        : 1380
    faces with face pyramid volume < 1e-13                 : 85
    faces with concavity > 80  degrees                     : 68
    faces with skewness > 4   (internal) or 20  (boundary) : 0
    faces with interpolation weights (0..1)  < 0.02        : 4
    faces with volume ratio of neighbour cells < 0.01      : 5
    faces with face twist < 0.02                           : 110
    faces on cells with determinant < 1e-05                : 0
displacementMotionSolver : Iteration 15
Moving mesh using displacement scaling : min:0  max:1
Checking faces in error :
    non-orthogonality > 65  degrees                        : 1891
    faces with face pyramid volume < 1e-13                 : 90
    faces with concavity > 80  degrees                     : 113
    faces with skewness > 4   (internal) or 20  (boundary) : 0
    faces with interpolation weights (0..1)  < 0.02        : 3
    faces with volume ratio of neighbour cells < 0.01      : 15
    faces with face twist < 0.02                           : 172
    faces on cells with determinant < 1e-05                : 0
displacementMotionSolver : Iteration 16
Moving mesh using displacement scaling : min:0  max:1
Checking faces in error :
    non-orthogonality > 65  degrees                        : 2344
    faces with face pyramid volume < 1e-13                 : 181
    faces with concavity > 80  degrees                     : 148
    faces with skewness > 4   (internal) or 20  (boundary) : 0
    faces with interpolation weights (0..1)  < 0.02        : 5
    faces with volume ratio of neighbour cells < 0.01      : 12
    faces with face twist < 0.02                           : 225
    faces on cells with determinant < 1e-05                : 2
displacementMotionSolver : Iteration 17
Moving mesh using displacement scaling : min:0  max:1
Checking faces in error :
    non-orthogonality > 65  degrees                        : 2774
    faces with face pyramid volume < 1e-13                 : 211
    faces with concavity > 80  degrees                     : 152
    faces with skewness > 4   (internal) or 20  (boundary) : 0
    faces with interpolation weights (0..1)  < 0.02        : 3
    faces with volume ratio of neighbour cells < 0.01      : 14
    faces with face twist < 0.02                           : 306
    faces on cells with determinant < 1e-05                : 1
displacementMotionSolver : Iteration 18
Moving mesh using displacement scaling : min:0  max:1
Checking faces in error :
    non-orthogonality > 65  degrees                        : 2652
    faces with face pyramid volume < 1e-13                 : 213
    faces with concavity > 80  degrees                     : 191
    faces with skewness > 4   (internal) or 20  (boundary) : 1
    faces with interpolation weights (0..1)  < 0.02        : 13
    faces with volume ratio of neighbour cells < 0.01      : 5
    faces with face twist < 0.02                           : 343
    faces on cells with determinant < 1e-05                : 0
displacementMotionSolver : Iteration 19
Moving mesh using displacement scaling : min:0  max:1
Checking faces in error :
    non-orthogonality > 65  degrees                        : 2651
    faces with face pyramid volume < 1e-13                 : 157
    faces with concavity > 80  degrees                     : 163
    faces with skewness > 4   (internal) or 20  (boundary) : 0
    faces with interpolation weights (0..1)  < 0.02        : 6
    faces with volume ratio of neighbour cells < 0.01      : 7
    faces with face twist < 0.02                           : 297
    faces on cells with determinant < 1e-05                : 0
displacementMotionSolver : Finished moving mesh ...
truncateDisplacement : Unextruded 0 faces due to non-consecutive vertices being extruded.
truncateDisplacement : Unextruded 0 faces due to stringed edges with inconsistent extrusion.

Setting up information for layer truncation ...
Detected 0 baffles across faceZones of type internal


Checking mesh with layer ...
Checking faces in error :
    non-orthogonality > 65  degrees                        : 2793
    faces with face pyramid volume < 1e-13                 : 128
    faces with concavity > 80  degrees                     : 163
    faces with skewness > 4   (internal) or 20  (boundary) : 0
    faces with interpolation weights (0..1)  < 0.02        : 6
    faces with volume ratio of neighbour cells < 0.01      : 8
    faces with face twist < 0.02                           : 277
    faces on cells with determinant < 1e-05                : 0
Detected 3375 illegal faces (concave, zero area or negative cell pyramid volume)
Extruding 897396 out of 901942 faces (99.496%). Removed extrusion at 156 faces.
Added 10850902 out of 12627188 cells (85.9328%).


Layer addition iteration 1
--------------------------

Determining displacement for added points according to pointNormal ...
Detected 0 points with point normal pointing through faces.
Reset displacement at 0 points to average of surrounding points.

fieldSmoother : Smoothing field ...
    Iteration 0   residual 1.14086e-05
GAMG:  Solving for cellDisplacementx, Initial residual = 0.00515987, Final residual = 6.41341e-18, No Iterations 1
GAMG:  Solving for cellDisplacementy, Initial residual = 0.00135815, Final residual = 6.50228e-18, No Iterations 1
GAMG:  Solving for cellDisplacementz, Initial residual = 0.00339879, Final residual = 6.163e-18, No Iterations 1
displacementMotionSolver : Moving mesh ...
displacementMotionSolver : Iteration 0
Moving mesh using displacement scaling : min:1  max:1
Checking faces in error :
    non-orthogonality > 65  degrees                        : 38762
    faces with face pyramid volume < 1e-13                 : 165
    faces with concavity > 80  degrees                     : 0
    faces with skewness > 4   (internal) or 20  (boundary) : 0
    faces with interpolation weights (0..1)  < 0.02        : 10
    faces with volume ratio of neighbour cells < 0.01      : 2
    faces with face twist < 0.02                           : 358
    faces on cells with determinant < 1e-05                : 0
displacementMotionSolver : Iteration 1
Moving mesh using displacement scaling : min:0.75  max:1
Checking faces in error :
    non-orthogonality > 65  degrees                        : 32891
    faces with face pyramid volume < 1e-13                 : 173
    faces with concavity > 80  degrees                     : 195
    faces with skewness > 4   (internal) or 20  (boundary) : 0
    faces with interpolation weights (0..1)  < 0.02        : 0
    faces with volume ratio of neighbour cells < 0.01      : 45
    faces with face twist < 0.02                           : 2811
    faces on cells with determinant < 1e-05                : 1
displacementMotionSolver : Iteration 2
Moving mesh using displacement scaling : min:0.5625  max:1
Checking faces in error :
    non-orthogonality > 65  degrees                        : 12451
    faces with face pyramid volume < 1e-13                 : 226
    faces with concavity > 80  degrees                     : 68
    faces with skewness > 4   (internal) or 20  (boundary) : 0
    faces with interpolation weights (0..1)  < 0.02        : 1
    faces with volume ratio of neighbour cells < 0.01      : 9
    faces with face twist < 0.02                           : 652
    faces on cells with determinant < 1e-05                : 2
displacementMotionSolver : Iteration 3
Moving mesh using displacement scaling : min:0.421875  max:1
Checking faces in error :
    non-orthogonality > 65  degrees                        : 3441
    faces with face pyramid volume < 1e-13                 : 387
    faces with concavity > 80  degrees                     : 466
    faces with skewness > 4   (internal) or 20  (boundary) : 0
    faces with interpolation weights (0..1)  < 0.02        : 8
    faces with volume ratio of neighbour cells < 0.01      : 35
    faces with face twist < 0.02                           : 760
    faces on cells with determinant < 1e-05                : 0
displacementMotionSolver : Iteration 4
Moving mesh using displacement scaling : min:0.316406  max:1
Checking faces in error :
    non-orthogonality > 65  degrees                        : 2141
    faces with face pyramid volume < 1e-13                 : 350
    faces with concavity > 80  degrees                     : 329
    faces with skewness > 4   (internal) or 20  (boundary) : 1
    faces with interpolation weights (0..1)  < 0.02        : 5
    faces with volume ratio of neighbour cells < 0.01      : 31
    faces with face twist < 0.02                           : 781
    faces on cells with determinant < 1e-05                : 1
displacementMotionSolver : Iteration 5
Moving mesh using displacement scaling : min:0.237305  max:1
Checking faces in error :
    non-orthogonality > 65  degrees                        : 948
    faces with face pyramid volume < 1e-13                 : 300
    faces with concavity > 80  degrees                     : 273
    faces with skewness > 4   (internal) or 20  (boundary) : 1
    faces with interpolation weights (0..1)  < 0.02        : 6
    faces with volume ratio of neighbour cells < 0.01      : 26
    faces with face twist < 0.02                           : 289
    faces on cells with determinant < 1e-05                : 0
displacementMotionSolver : Iteration 6
Moving mesh using displacement scaling : min:0.221978  max:1
Checking faces in error :
    non-orthogonality > 65  degrees                        : 368
    faces with face pyramid volume < 1e-13                 : 65
    faces with concavity > 80  degrees                     : 160
    faces with skewness > 4   (internal) or 20  (boundary) : 0
    faces with interpolation weights (0..1)  < 0.02        : 1
    faces with volume ratio of neighbour cells < 0.01      : 32
    faces with face twist < 0.02                           : 189
    faces on cells with determinant < 1e-05                : 0
displacementMotionSolver : Iteration 7
Moving mesh using displacement scaling : min:0.221978  max:1
Checking faces in error :
    non-orthogonality > 65  degrees                        : 162
    faces with face pyramid volume < 1e-13                 : 63
    faces with concavity > 80  degrees                     : 107
    faces with skewness > 4   (internal) or 20  (boundary) : 0
    faces with interpolation weights (0..1)  < 0.02        : 0
    faces with volume ratio of neighbour cells < 0.01      : 7
    faces with face twist < 0.02                           : 136
    faces on cells with determinant < 1e-05                : 0
displacementMotionSolver : Iteration 8
Moving mesh using displacement scaling : min:0.16889  max:1
Checking faces in error :
    non-orthogonality > 65  degrees                        : 52
    faces with face pyramid volume < 1e-13                 : 13
    faces with concavity > 80  degrees                     : 24
    faces with skewness > 4   (internal) or 20  (boundary) : 0
    faces with interpolation weights (0..1)  < 0.02        : 1
    faces with volume ratio of neighbour cells < 0.01      : 2
    faces with face twist < 0.02                           : 38
    faces on cells with determinant < 1e-05                : 0
displacementMotionSolver : Iteration 9
Moving mesh using displacement scaling : min:0.126667  max:1
Checking faces in error :
    non-orthogonality > 65  degrees                        : 15
    faces with face pyramid volume < 1e-13                 : 2
    faces with concavity > 80  degrees                     : 10
    faces with skewness > 4   (internal) or 20  (boundary) : 0
    faces with interpolation weights (0..1)  < 0.02        : 2
    faces with volume ratio of neighbour cells < 0.01      : 0
    faces with face twist < 0.02                           : 27
    faces on cells with determinant < 1e-05                : 0
displacementMotionSolver : Iteration 10
displacementMotionSolver : Displacement scaling for error reduction set to 0.
Moving mesh using displacement scaling : min:0.0950006  max:1
Checking faces in error :
    non-orthogonality > 65  degrees                        : 12
    faces with face pyramid volume < 1e-13                 : 1
    faces with concavity > 80  degrees                     : 3
    faces with skewness > 4   (internal) or 20  (boundary) : 0
    faces with interpolation weights (0..1)  < 0.02        : 0
    faces with volume ratio of neighbour cells < 0.01      : 0
    faces with face twist < 0.02                           : 4
    faces on cells with determinant < 1e-05                : 0
displacementMotionSolver : Iteration 11
Moving mesh using displacement scaling : min:0  max:1
Checking faces in error :
    non-orthogonality > 65  degrees                        : 12
    faces with face pyramid volume < 1e-13                 : 0
    faces with concavity > 80  degrees                     : 0
    faces with skewness > 4   (internal) or 20  (boundary) : 0
    faces with interpolation weights (0..1)  < 0.02        : 1
    faces with volume ratio of neighbour cells < 0.01      : 0
    faces with face twist < 0.02                           : 3
    faces on cells with determinant < 1e-05                : 0
displacementMotionSolver : Iteration 12
Moving mesh using displacement scaling : min:0  max:1
Checking faces in error :
    non-orthogonality > 65  degrees                        : 39
    faces with face pyramid volume < 1e-13                 : 4
    faces with concavity > 80  degrees                     : 2
    faces with skewness > 4   (internal) or 20  (boundary) : 0
    faces with interpolation weights (0..1)  < 0.02        : 0
    faces with volume ratio of neighbour cells < 0.01      : 0
    faces with face twist < 0.02                           : 4
    faces on cells with determinant < 1e-05                : 0
displacementMotionSolver : Iteration 13
Moving mesh using displacement scaling : min:0  max:1
Checking faces in error :
    non-orthogonality > 65  degrees                        : 52
    faces with face pyramid volume < 1e-13                 : 4
    faces with concavity > 80  degrees                     : 7
    faces with skewness > 4   (internal) or 20  (boundary) : 0
    faces with interpolation weights (0..1)  < 0.02        : 0
    faces with volume ratio of neighbour cells < 0.01      : 1
    faces with face twist < 0.02                           : 4
    faces on cells with determinant < 1e-05                : 0
displacementMotionSolver : Iteration 14
Moving mesh using displacement scaling : min:0  max:1
Checking faces in error :
    non-orthogonality > 65  degrees                        : 59
    faces with face pyramid volume < 1e-13                 : 4
    faces with concavity > 80  degrees                     : 13
    faces with skewness > 4   (internal) or 20  (boundary) : 0
    faces with interpolation weights (0..1)  < 0.02        : 0
    faces with volume ratio of neighbour cells < 0.01      : 2
    faces with face twist < 0.02                           : 18
    faces on cells with determinant < 1e-05                : 0
displacementMotionSolver : Iteration 15
Moving mesh using displacement scaling : min:0  max:1
Checking faces in error :
    non-orthogonality > 65  degrees                        : 137
    faces with face pyramid volume < 1e-13                 : 25
    faces with concavity > 80  degrees                     : 23
    faces with skewness > 4   (internal) or 20  (boundary) : 0
    faces with interpolation weights (0..1)  < 0.02        : 0
    faces with volume ratio of neighbour cells < 0.01      : 0
    faces with face twist < 0.02                           : 20
    faces on cells with determinant < 1e-05                : 0
displacementMotionSolver : Iteration 16
Moving mesh using displacement scaling : min:0  max:1
Checking faces in error :
    non-orthogonality > 65  degrees                        : 303
    faces with face pyramid volume < 1e-13                 : 47
    faces with concavity > 80  degrees                     : 23
    faces with skewness > 4   (internal) or 20  (boundary) : 1
    faces with interpolation weights (0..1)  < 0.02        : 2
    faces with volume ratio of neighbour cells < 0.01      : 3
    faces with face twist < 0.02                           : 35
    faces on cells with determinant < 1e-05                : 0
displacementMotionSolver : Iteration 17
Moving mesh using displacement scaling : min:0  max:1
Checking faces in error :
    non-orthogonality > 65  degrees                        : 240
    faces with face pyramid volume < 1e-13                 : 33
    faces with concavity > 80  degrees                     : 24
    faces with skewness > 4   (internal) or 20  (boundary) : 0
    faces with interpolation weights (0..1)  < 0.02        : 5
    faces with volume ratio of neighbour cells < 0.01      : 3
    faces with face twist < 0.02                           : 38
    faces on cells with determinant < 1e-05                : 0
displacementMotionSolver : Iteration 18
Moving mesh using displacement scaling : min:0  max:1
Checking faces in error :
    non-orthogonality > 65  degrees                        : 233
    faces with face pyramid volume < 1e-13                 : 31
    faces with concavity > 80  degrees                     : 27
    faces with skewness > 4   (internal) or 20  (boundary) : 0
    faces with interpolation weights (0..1)  < 0.02        : 0
    faces with volume ratio of neighbour cells < 0.01      : 2
    faces with face twist < 0.02                           : 39
    faces on cells with determinant < 1e-05                : 0
displacementMotionSolver : Iteration 19
Moving mesh using displacement scaling : min:0  max:1
Checking faces in error :
    non-orthogonality > 65  degrees                        : 226
    faces with face pyramid volume < 1e-13                 : 44
    faces with concavity > 80  degrees                     : 44
    faces with skewness > 4   (internal) or 20  (boundary) : 0
    faces with interpolation weights (0..1)  < 0.02        : 2
    faces with volume ratio of neighbour cells < 0.01      : 0
    faces with face twist < 0.02                           : 36
    faces on cells with determinant < 1e-05                : 0
displacementMotionSolver : Finished moving mesh ...
truncateDisplacement : Unextruded 4 faces due to non-consecutive vertices being extruded.
truncateDisplacement : Unextruded 0 faces due to stringed edges with inconsistent extrusion.
truncateDisplacement : Unextruded 0 faces due to non-consecutive vertices being extruded.
truncateDisplacement : Unextruded 0 faces due to stringed edges with inconsistent extrusion.

Setting up information for layer truncation ...
Detected 0 baffles across faceZones of type internal


Checking mesh with layer ...
Checking faces in error :
    non-orthogonality > 65  degrees                        : 234
    faces with face pyramid volume < 1e-13                 : 39
    faces with concavity > 80  degrees                     : 44
    faces with skewness > 4   (internal) or 20  (boundary) : 0
    faces with interpolation weights (0..1)  < 0.02        : 2
    faces with volume ratio of neighbour cells < 0.01      : 0
    faces with face twist < 0.02                           : 34
    faces on cells with determinant < 1e-05                : 0
Detected 353 illegal faces (concave, zero area or negative cell pyramid volume)
Extruding 896859 out of 901942 faces (99.4364%). Removed extrusion at 17 faces.
Added 10831678 out of 12627188 cells (85.7806%).


Layer addition iteration 2
--------------------------

Determining displacement for added points according to pointNormal ...
Detected 0 points with point normal pointing through faces.
Reset displacement at 0 points to average of surrounding points.

fieldSmoother : Smoothing field ...
    Iteration 0   residual 1.15081e-05
GAMG:  Solving for cellDisplacementx, Initial residual = 0.000734175, Final residual = 6.50234e-18, No Iterations 1
GAMG:  Solving for cellDisplacementy, Initial residual = 0.00024762, Final residual = 6.50761e-18, No Iterations 1
GAMG:  Solving for cellDisplacementz, Initial residual = 0.000345354, Final residual = 6.17004e-18, No Iterations 1
displacementMotionSolver : Moving mesh ...
displacementMotionSolver : Iteration 0
Moving mesh using displacement scaling : min:1  max:1
Checking faces in error :
    non-orthogonality > 65  degrees                        : 35077
    faces with face pyramid volume < 1e-13                 : 179
    faces with concavity > 80  degrees                     : 4
    faces with skewness > 4   (internal) or 20  (boundary) : 0
    faces with interpolation weights (0..1)  < 0.02        : 7
    faces with volume ratio of neighbour cells < 0.01      : 1
    faces with face twist < 0.02                           : 286
    faces on cells with determinant < 1e-05                : 0
displacementMotionSolver : Iteration 1
Moving mesh using displacement scaling : min:0.75  max:1
Checking faces in error :
    non-orthogonality > 65  degrees                        : 29395
    faces with face pyramid volume < 1e-13                 : 148
    faces with concavity > 80  degrees                     : 199
    faces with skewness > 4   (internal) or 20  (boundary) : 0
    faces with interpolation weights (0..1)  < 0.02        : 7
    faces with volume ratio of neighbour cells < 0.01      : 43
    faces with face twist < 0.02                           : 2566
    faces on cells with determinant < 1e-05                : 0
displacementMotionSolver : Iteration 2
Moving mesh using displacement scaling : min:0.5625  max:1
Checking faces in error :
    non-orthogonality > 65  degrees                        : 9633
    faces with face pyramid volume < 1e-13                 : 202
    faces with concavity > 80  degrees                     : 85
    faces with skewness > 4   (internal) or 20  (boundary) : 0
    faces with interpolation weights (0..1)  < 0.02        : 1
    faces with volume ratio of neighbour cells < 0.01      : 7
    faces with face twist < 0.02                           : 645
    faces on cells with determinant < 1e-05                : 0
displacementMotionSolver : Iteration 3
Moving mesh using displacement scaling : min:0.421875  max:1
Checking faces in error :
    non-orthogonality > 65  degrees                        : 2944
    faces with face pyramid volume < 1e-13                 : 321
    faces with concavity > 80  degrees                     : 404
    faces with skewness > 4   (internal) or 20  (boundary) : 0
    faces with interpolation weights (0..1)  < 0.02        : 6
    faces with volume ratio of neighbour cells < 0.01      : 33
    faces with face twist < 0.02                           : 751
    faces on cells with determinant < 1e-05                : 0
displacementMotionSolver : Iteration 4
Moving mesh using displacement scaling : min:0.316406  max:1
Checking faces in error :
    non-orthogonality > 65  degrees                        : 1974
    faces with face pyramid volume < 1e-13                 : 294
    faces with concavity > 80  degrees                     : 291
    faces with skewness > 4   (internal) or 20  (boundary) : 1
    faces with interpolation weights (0..1)  < 0.02        : 4
    faces with volume ratio of neighbour cells < 0.01      : 13
    faces with face twist < 0.02                           : 596
    faces on cells with determinant < 1e-05                : 1
displacementMotionSolver : Iteration 5
Moving mesh using displacement scaling : min:0.237305  max:1
Checking faces in error :
    non-orthogonality > 65  degrees                        : 925
    faces with face pyramid volume < 1e-13                 : 237
    faces with concavity > 80  degrees                     : 260
    faces with skewness > 4   (internal) or 20  (boundary) : 0
    faces with interpolation weights (0..1)  < 0.02        : 2
    faces with volume ratio of neighbour cells < 0.01      : 35
    faces with face twist < 0.02                           : 249
    faces on cells with determinant < 1e-05                : 0
displacementMotionSolver : Iteration 6
Moving mesh using displacement scaling : min:0.222158  max:1
Checking faces in error :
    non-orthogonality > 65  degrees                        : 397
    faces with face pyramid volume < 1e-13                 : 77
    faces with concavity > 80  degrees                     : 184
    faces with skewness > 4   (internal) or 20  (boundary) : 0
    faces with interpolation weights (0..1)  < 0.02        : 2
    faces with volume ratio of neighbour cells < 0.01      : 27
    faces with face twist < 0.02                           : 205
    faces on cells with determinant < 1e-05                : 0
displacementMotionSolver : Iteration 7
Moving mesh using displacement scaling : min:0.20465  max:1
Checking faces in error :
    non-orthogonality > 65  degrees                        : 190
    faces with face pyramid volume < 1e-13                 : 59
    faces with concavity > 80  degrees                     : 104
    faces with skewness > 4   (internal) or 20  (boundary) : 0
    faces with interpolation weights (0..1)  < 0.02        : 0
    faces with volume ratio of neighbour cells < 0.01      : 5
    faces with face twist < 0.02                           : 152
    faces on cells with determinant < 1e-05                : 0
displacementMotionSolver : Iteration 8
Moving mesh using displacement scaling : min:0.203087  max:1
Checking faces in error :
    non-orthogonality > 65  degrees                        : 25
    faces with face pyramid volume < 1e-13                 : 18
    faces with concavity > 80  degrees                     : 13
    faces with skewness > 4   (internal) or 20  (boundary) : 0
    faces with interpolation weights (0..1)  < 0.02        : 0
    faces with volume ratio of neighbour cells < 0.01      : 1
    faces with face twist < 0.02                           : 22
    faces on cells with determinant < 1e-05                : 0
displacementMotionSolver : Iteration 9
Moving mesh using displacement scaling : min:0.203087  max:1
Checking faces in error :
    non-orthogonality > 65  degrees                        : 21
    faces with face pyramid volume < 1e-13                 : 7
    faces with concavity > 80  degrees                     : 6
    faces with skewness > 4   (internal) or 20  (boundary) : 0
    faces with interpolation weights (0..1)  < 0.02        : 0
    faces with volume ratio of neighbour cells < 0.01      : 0
    faces with face twist < 0.02                           : 12
    faces on cells with determinant < 1e-05                : 0
displacementMotionSolver : Iteration 10
displacementMotionSolver : Displacement scaling for error reduction set to 0.
Moving mesh using displacement scaling : min:0.159794  max:1
Checking faces in error :
    non-orthogonality > 65  degrees                        : 0
    faces with face pyramid volume < 1e-13                 : 0
    faces with concavity > 80  degrees                     : 3
    faces with skewness > 4   (internal) or 20  (boundary) : 0
    faces with interpolation weights (0..1)  < 0.02        : 1
    faces with volume ratio of neighbour cells < 0.01      : 1
    faces with face twist < 0.02                           : 4
    faces on cells with determinant < 1e-05                : 0
displacementMotionSolver : Iteration 11
Moving mesh using displacement scaling : min:0  max:1
Checking faces in error :
    non-orthogonality > 65  degrees                        : 55
    faces with face pyramid volume < 1e-13                 : 20
    faces with concavity > 80  degrees                     : 2
    faces with skewness > 4   (internal) or 20  (boundary) : 0
    faces with interpolation weights (0..1)  < 0.02        : 0
    faces with volume ratio of neighbour cells < 0.01      : 0
    faces with face twist < 0.02                           : 3
    faces on cells with determinant < 1e-05                : 0
displacementMotionSolver : Iteration 12
Moving mesh using displacement scaling : min:0  max:1
Checking faces in error :
    non-orthogonality > 65  degrees                        : 16
    faces with face pyramid volume < 1e-13                 : 1
    faces with concavity > 80  degrees                     : 2
    faces with skewness > 4   (internal) or 20  (boundary) : 0
    faces with interpolation weights (0..1)  < 0.02        : 0
    faces with volume ratio of neighbour cells < 0.01      : 0
    faces with face twist < 0.02                           : 1
    faces on cells with determinant < 1e-05                : 0
displacementMotionSolver : Iteration 13
Moving mesh using displacement scaling : min:0  max:1
Checking faces in error :
    non-orthogonality > 65  degrees                        : 43
    faces with face pyramid volume < 1e-13                 : 2
    faces with concavity > 80  degrees                     : 11
    faces with skewness > 4   (internal) or 20  (boundary) : 0
    faces with interpolation weights (0..1)  < 0.02        : 1
    faces with volume ratio of neighbour cells < 0.01      : 0
    faces with face twist < 0.02                           : 16
    faces on cells with determinant < 1e-05                : 0
displacementMotionSolver : Iteration 14
Moving mesh using displacement scaling : min:0  max:1
Checking faces in error :
    non-orthogonality > 65  degrees                        : 100
    faces with face pyramid volume < 1e-13                 : 20
    faces with concavity > 80  degrees                     : 28
    faces with skewness > 4   (internal) or 20  (boundary) : 0
    faces with interpolation weights (0..1)  < 0.02        : 0
    faces with volume ratio of neighbour cells < 0.01      : 2
    faces with face twist < 0.02                           : 25
    faces on cells with determinant < 1e-05                : 0
displacementMotionSolver : Iteration 15
Moving mesh using displacement scaling : min:0  max:1
Checking faces in error :
    non-orthogonality > 65  degrees                        : 141
    faces with face pyramid volume < 1e-13                 : 22
    faces with concavity > 80  degrees                     : 22
    faces with skewness > 4   (internal) or 20  (boundary) : 0
    faces with interpolation weights (0..1)  < 0.02        : 2
    faces with volume ratio of neighbour cells < 0.01      : 1
    faces with face twist < 0.02                           : 23
    faces on cells with determinant < 1e-05                : 0
displacementMotionSolver : Iteration 16
Moving mesh using displacement scaling : min:0  max:1
Checking faces in error :
    non-orthogonality > 65  degrees                        : 267
    faces with face pyramid volume < 1e-13                 : 34
    faces with concavity > 80  degrees                     : 25
    faces with skewness > 4   (internal) or 20  (boundary) : 0
    faces with interpolation weights (0..1)  < 0.02        : 3
    faces with volume ratio of neighbour cells < 0.01      : 8
    faces with face twist < 0.02                           : 27
    faces on cells with determinant < 1e-05                : 0
displacementMotionSolver : Iteration 17
Moving mesh using displacement scaling : min:0  max:1
Checking faces in error :
    non-orthogonality > 65  degrees                        : 280
    faces with face pyramid volume < 1e-13                 : 45
    faces with concavity > 80  degrees                     : 26
    faces with skewness > 4   (internal) or 20  (boundary) : 0
    faces with interpolation weights (0..1)  < 0.02        : 3
    faces with volume ratio of neighbour cells < 0.01      : 3
    faces with face twist < 0.02                           : 51
    faces on cells with determinant < 1e-05                : 0
displacementMotionSolver : Iteration 18
Moving mesh using displacement scaling : min:0  max:1
Checking faces in error :
    non-orthogonality > 65  degrees                        : 226
    faces with face pyramid volume < 1e-13                 : 21
    faces with concavity > 80  degrees                     : 23
    faces with skewness > 4   (internal) or 20  (boundary) : 0
    faces with interpolation weights (0..1)  < 0.02        : 1
    faces with volume ratio of neighbour cells < 0.01      : 0
    faces with face twist < 0.02                           : 38
    faces on cells with determinant < 1e-05                : 0
displacementMotionSolver : Iteration 19
Moving mesh using displacement scaling : min:0  max:1
Checking faces in error :
    non-orthogonality > 65  degrees                        : 149
    faces with face pyramid volume < 1e-13                 : 32
    faces with concavity > 80  degrees                     : 27
    faces with skewness > 4   (internal) or 20  (boundary) : 0
    faces with interpolation weights (0..1)  < 0.02        : 1
    faces with volume ratio of neighbour cells < 0.01      : 0
    faces with face twist < 0.02                           : 54
    faces on cells with determinant < 1e-05                : 0
displacementMotionSolver : Finished moving mesh ...
truncateDisplacement : Unextruded 1 faces due to non-consecutive vertices being extruded.
truncateDisplacement : Unextruded 0 faces due to stringed edges with inconsistent extrusion.
truncateDisplacement : Unextruded 0 faces due to non-consecutive vertices being extruded.
truncateDisplacement : Unextruded 0 faces due to stringed edges with inconsistent extrusion.

Setting up information for layer truncation ...
Detected 0 baffles across faceZones of type internal


Checking mesh with layer ...
Checking faces in error :
    non-orthogonality > 65  degrees                        : 158
    faces with face pyramid volume < 1e-13                 : 25
    faces with concavity > 80  degrees                     : 27
    faces with skewness > 4   (internal) or 20  (boundary) : 0
    faces with interpolation weights (0..1)  < 0.02        : 2
    faces with volume ratio of neighbour cells < 0.01      : 0
    faces with face twist < 0.02                           : 54
    faces on cells with determinant < 1e-05                : 0
Detected 266 illegal faces (concave, zero area or negative cell pyramid volume)
Extruding 896318 out of 901942 faces (99.3765%). Removed extrusion at 20 faces.
Added 10823194 out of 12627188 cells (85.7134%).


Layer addition iteration 3
--------------------------

Determining displacement for added points according to pointNormal ...
Detected 0 points with point normal pointing through faces.
Reset displacement at 0 points to average of surrounding points.

fieldSmoother : Smoothing field ...
    Iteration 0   residual 1.1606e-05
GAMG:  Solving for cellDisplacementx, Initial residual = 0.00087343, Final residual = 6.54173e-18, No Iterations 1
GAMG:  Solving for cellDisplacementy, Initial residual = 0.000129675, Final residual = 6.50612e-18, No Iterations 1
GAMG:  Solving for cellDisplacementz, Initial residual = 0.000401722, Final residual = 6.1638e-18, No Iterations 1
displacementMotionSolver : Moving mesh ...
displacementMotionSolver : Iteration 0
Moving mesh using displacement scaling : min:1  max:1
Checking faces in error :
    non-orthogonality > 65  degrees                        : 32050
    faces with face pyramid volume < 1e-13                 : 160
    faces with concavity > 80  degrees                     : 8
    faces with skewness > 4   (internal) or 20  (boundary) : 0
    faces with interpolation weights (0..1)  < 0.02        : 4
    faces with volume ratio of neighbour cells < 0.01      : 1
    faces with face twist < 0.02                           : 269
    faces on cells with determinant < 1e-05                : 0
displacementMotionSolver : Iteration 1
Moving mesh using displacement scaling : min:0.75  max:1
Checking faces in error :
    non-orthogonality > 65  degrees                        : 26604
    faces with face pyramid volume < 1e-13                 : 162
    faces with concavity > 80  degrees                     : 237
    faces with skewness > 4   (internal) or 20  (boundary) : 0
    faces with interpolation weights (0..1)  < 0.02        : 2
    faces with volume ratio of neighbour cells < 0.01      : 41
    faces with face twist < 0.02                           : 2302
    faces on cells with determinant < 1e-05                : 0
displacementMotionSolver : Iteration 2
Moving mesh using displacement scaling : min:0.5625  max:1
Checking faces in error :
    non-orthogonality > 65  degrees                        : 8201
    faces with face pyramid volume < 1e-13                 : 156
    faces with concavity > 80  degrees                     : 91
    faces with skewness > 4   (internal) or 20  (boundary) : 1
    faces with interpolation weights (0..1)  < 0.02        : 3
    faces with volume ratio of neighbour cells < 0.01      : 6
    faces with face twist < 0.02                           : 625
    faces on cells with determinant < 1e-05                : 0
displacementMotionSolver : Iteration 3
Moving mesh using displacement scaling : min:0.421875  max:1
Checking faces in error :
    non-orthogonality > 65  degrees                        : 2756
    faces with face pyramid volume < 1e-13                 : 320
    faces with concavity > 80  degrees                     : 389
    faces with skewness > 4   (internal) or 20  (boundary) : 0
    faces with interpolation weights (0..1)  < 0.02        : 7
    faces with volume ratio of neighbour cells < 0.01      : 18
    faces with face twist < 0.02                           : 744
    faces on cells with determinant < 1e-05                : 0
displacementMotionSolver : Iteration 4
Moving mesh using displacement scaling : min:0.316406  max:1
Checking faces in error :
    non-orthogonality > 65  degrees                        : 1811
    faces with face pyramid volume < 1e-13                 : 249
    faces with concavity > 80  degrees                     : 329
    faces with skewness > 4   (internal) or 20  (boundary) : 0
    faces with interpolation weights (0..1)  < 0.02        : 4
    faces with volume ratio of neighbour cells < 0.01      : 13
    faces with face twist < 0.02                           : 569
    faces on cells with determinant < 1e-05                : 0
displacementMotionSolver : Iteration 5
Moving mesh using displacement scaling : min:0.237305  max:1
Checking faces in error :
    non-orthogonality > 65  degrees                        : 657
    faces with face pyramid volume < 1e-13                 : 183
    faces with concavity > 80  degrees                     : 195
    faces with skewness > 4   (internal) or 20  (boundary) : 0
    faces with interpolation weights (0..1)  < 0.02        : 0
    faces with volume ratio of neighbour cells < 0.01      : 16
    faces with face twist < 0.02                           : 213
    faces on cells with determinant < 1e-05                : 0
displacementMotionSolver : Iteration 6
Moving mesh using displacement scaling : min:0.237305  max:1
Checking faces in error :
    non-orthogonality > 65  degrees                        : 205
    faces with face pyramid volume < 1e-13                 : 55
    faces with concavity > 80  degrees                     : 112
    faces with skewness > 4   (internal) or 20  (boundary) : 1
    faces with interpolation weights (0..1)  < 0.02        : 0
    faces with volume ratio of neighbour cells < 0.01      : 15
    faces with face twist < 0.02                           : 130
    faces on cells with determinant < 1e-05                : 0
displacementMotionSolver : Iteration 7
Moving mesh using displacement scaling : min:0.237305  max:1
Checking faces in error :
    non-orthogonality > 65  degrees                        : 87
    faces with face pyramid volume < 1e-13                 : 22
    faces with concavity > 80  degrees                     : 36
    faces with skewness > 4   (internal) or 20  (boundary) : 0
    faces with interpolation weights (0..1)  < 0.02        : 0
    faces with volume ratio of neighbour cells < 0.01      : 3
    faces with face twist < 0.02                           : 63
    faces on cells with determinant < 1e-05                : 0
displacementMotionSolver : Iteration 8
Moving mesh using displacement scaling : min:0.237305  max:1
Checking faces in error :
    non-orthogonality > 65  degrees                        : 29
    faces with face pyramid volume < 1e-13                 : 9
    faces with concavity > 80  degrees                     : 9
    faces with skewness > 4   (internal) or 20  (boundary) : 0
    faces with interpolation weights (0..1)  < 0.02        : 0
    faces with volume ratio of neighbour cells < 0.01      : 0
    faces with face twist < 0.02                           : 22
    faces on cells with determinant < 1e-05                : 0
displacementMotionSolver : Iteration 9
Moving mesh using displacement scaling : min:0.206669  max:1
Checking faces in error :
    non-orthogonality > 65  degrees                        : 5
    faces with face pyramid volume < 1e-13                 : 1
    faces with concavity > 80  degrees                     : 7
    faces with skewness > 4   (internal) or 20  (boundary) : 0
    faces with interpolation weights (0..1)  < 0.02        : 0
    faces with volume ratio of neighbour cells < 0.01      : 1
    faces with face twist < 0.02                           : 3
    faces on cells with determinant < 1e-05                : 0
displacementMotionSolver : Iteration 10
displacementMotionSolver : Displacement scaling for error reduction set to 0.
Moving mesh using displacement scaling : min:0.206669  max:1
Checking faces in error :
    non-orthogonality > 65  degrees                        : 0
    faces with face pyramid volume < 1e-13                 : 0
    faces with concavity > 80  degrees                     : 0
    faces with skewness > 4   (internal) or 20  (boundary) : 0
    faces with interpolation weights (0..1)  < 0.02        : 0
    faces with volume ratio of neighbour cells < 0.01      : 0
    faces with face twist < 0.02                           : 0
    faces on cells with determinant < 1e-05                : 0
displacementMotionSolver : Successfully moved mesh
displacementMotionSolver : Finished moving mesh ...
truncateDisplacement : Unextruded 0 faces due to non-consecutive vertices being extruded.
truncateDisplacement : Unextruded 0 faces due to stringed edges with inconsistent extrusion.

Setting up information for layer truncation ...
Detected 0 baffles across faceZones of type internal


Checking mesh with layer ...
Checking faces in error :
    non-orthogonality > 65  degrees                        : 0
    faces with face pyramid volume < 1e-13                 : 0
    faces with concavity > 80  degrees                     : 0
    faces with skewness > 4   (internal) or 20  (boundary) : 0
    faces with interpolation weights (0..1)  < 0.02        : 2
    faces with volume ratio of neighbour cells < 0.01      : 0
    faces with face twist < 0.02                           : 0
    faces on cells with determinant < 1e-05                : 0
Detected 2 illegal faces (concave, zero area or negative cell pyramid volume)
Extruding 896262 out of 901942 faces (99.3702%). Removed extrusion at 2 faces.
Added 10822545 out of 12627188 cells (85.7083%).


Layer addition iteration 4
--------------------------

Determining displacement for added points according to pointNormal ...
Detected 0 points with point normal pointing through faces.
Reset displacement at 0 points to average of surrounding points.

fieldSmoother : Smoothing field ...
    Iteration 0   residual 1.16102e-05
GAMG:  Solving for cellDisplacementx, Initial residual = 1.54219e-05, Final residual = 6.57218e-18, No Iterations 1
GAMG:  Solving for cellDisplacementy, Initial residual = 1.78967e-06, Final residual = 6.5063e-18, No Iterations 1
GAMG:  Solving for cellDisplacementz, Initial residual = 4.51596e-05, Final residual = 6.16131e-18, No Iterations 1
displacementMotionSolver : Moving mesh ...
displacementMotionSolver : Iteration 0
Moving mesh using displacement scaling : min:1  max:1
Checking faces in error :
    non-orthogonality > 65  degrees                        : 31702
    faces with face pyramid volume < 1e-13                 : 151
    faces with concavity > 80  degrees                     : 8
    faces with skewness > 4   (internal) or 20  (boundary) : 0
    faces with interpolation weights (0..1)  < 0.02        : 3
    faces with volume ratio of neighbour cells < 0.01      : 2
    faces with face twist < 0.02                           : 253
    faces on cells with determinant < 1e-05                : 0
displacementMotionSolver : Iteration 1
Moving mesh using displacement scaling : min:0.75  max:1
Checking faces in error :
    non-orthogonality > 65  degrees                        : 26275
    faces with face pyramid volume < 1e-13                 : 165
    faces with concavity > 80  degrees                     : 253
    faces with skewness > 4   (internal) or 20  (boundary) : 0
    faces with interpolation weights (0..1)  < 0.02        : 2
    faces with volume ratio of neighbour cells < 0.01      : 39
    faces with face twist < 0.02                           : 2230
    faces on cells with determinant < 1e-05                : 0
displacementMotionSolver : Iteration 2
Moving mesh using displacement scaling : min:0.5625  max:1
Checking faces in error :
    non-orthogonality > 65  degrees                        : 7841
    faces with face pyramid volume < 1e-13                 : 133
    faces with concavity > 80  degrees                     : 98
    faces with skewness > 4   (internal) or 20  (boundary) : 0
    faces with interpolation weights (0..1)  < 0.02        : 0
    faces with volume ratio of neighbour cells < 0.01      : 3
    faces with face twist < 0.02                           : 640
    faces on cells with determinant < 1e-05                : 0
displacementMotionSolver : Iteration 3
Moving mesh using displacement scaling : min:0.421875  max:1
Checking faces in error :
    non-orthogonality > 65  degrees                        : 2692
    faces with face pyramid volume < 1e-13                 : 312
    faces with concavity > 80  degrees                     : 341
    faces with skewness > 4   (internal) or 20  (boundary) : 0
    faces with interpolation weights (0..1)  < 0.02        : 4
    faces with volume ratio of neighbour cells < 0.01      : 22
    faces with face twist < 0.02                           : 712
    faces on cells with determinant < 1e-05                : 0
displacementMotionSolver : Iteration 4
Moving mesh using displacement scaling : min:0.316406  max:1
Checking faces in error :
    non-orthogonality > 65  degrees                        : 1776
    faces with face pyramid volume < 1e-13                 : 259
    faces with concavity > 80  degrees                     : 313
    faces with skewness > 4   (internal) or 20  (boundary) : 0
    faces with interpolation weights (0..1)  < 0.02        : 4
    faces with volume ratio of neighbour cells < 0.01      : 20
    faces with face twist < 0.02                           : 558
    faces on cells with determinant < 1e-05                : 3
displacementMotionSolver : Iteration 5
Moving mesh using displacement scaling : min:0.237305  max:1
Checking faces in error :
    non-orthogonality > 65  degrees                        : 615
    faces with face pyramid volume < 1e-13                 : 173
    faces with concavity > 80  degrees                     : 246
    faces with skewness > 4   (internal) or 20  (boundary) : 1
    faces with interpolation weights (0..1)  < 0.02        : 2
    faces with volume ratio of neighbour cells < 0.01      : 23
    faces with face twist < 0.02                           : 225
    faces on cells with determinant < 1e-05                : 0
displacementMotionSolver : Iteration 6
Moving mesh using displacement scaling : min:0.177979  max:1
Checking faces in error :
    non-orthogonality > 65  degrees                        : 162
    faces with face pyramid volume < 1e-13                 : 28
    faces with concavity > 80  degrees                     : 87
    faces with skewness > 4   (internal) or 20  (boundary) : 0
    faces with interpolation weights (0..1)  < 0.02        : 0
    faces with volume ratio of neighbour cells < 0.01      : 2
    faces with face twist < 0.02                           : 98
    faces on cells with determinant < 1e-05                : 0
displacementMotionSolver : Iteration 7
Moving mesh using displacement scaling : min:0.133484  max:1
Checking faces in error :
    non-orthogonality > 65  degrees                        : 88
    faces with face pyramid volume < 1e-13                 : 29
    faces with concavity > 80  degrees                     : 53
    faces with skewness > 4   (internal) or 20  (boundary) : 0
    faces with interpolation weights (0..1)  < 0.02        : 1
    faces with volume ratio of neighbour cells < 0.01      : 6
    faces with face twist < 0.02                           : 51
    faces on cells with determinant < 1e-05                : 0
displacementMotionSolver : Iteration 8
Moving mesh using displacement scaling : min:0.100113  max:1
Checking faces in error :
    non-orthogonality > 65  degrees                        : 40
    faces with face pyramid volume < 1e-13                 : 10
    faces with concavity > 80  degrees                     : 33
    faces with skewness > 4   (internal) or 20  (boundary) : 0
    faces with interpolation weights (0..1)  < 0.02        : 0
    faces with volume ratio of neighbour cells < 0.01      : 0
    faces with face twist < 0.02                           : 41
    faces on cells with determinant < 1e-05                : 0
displacementMotionSolver : Iteration 9
Moving mesh using displacement scaling : min:0.0750847  max:1
Checking faces in error :
    non-orthogonality > 65  degrees                        : 7
    faces with face pyramid volume < 1e-13                 : 1
    faces with concavity > 80  degrees                     : 4
    faces with skewness > 4   (internal) or 20  (boundary) : 0
    faces with interpolation weights (0..1)  < 0.02        : 1
    faces with volume ratio of neighbour cells < 0.01      : 1
    faces with face twist < 0.02                           : 0
    faces on cells with determinant < 1e-05                : 0
displacementMotionSolver : Iteration 10
displacementMotionSolver : Displacement scaling for error reduction set to 0.
Moving mesh using displacement scaling : min:0.0563135  max:1
Checking faces in error :
    non-orthogonality > 65  degrees                        : 0
    faces with face pyramid volume < 1e-13                 : 0
    faces with concavity > 80  degrees                     : 0
    faces with skewness > 4   (internal) or 20  (boundary) : 0
    faces with interpolation weights (0..1)  < 0.02        : 1
    faces with volume ratio of neighbour cells < 0.01      : 0
    faces with face twist < 0.02                           : 0
    faces on cells with determinant < 1e-05                : 0
displacementMotionSolver : Iteration 11
Moving mesh using displacement scaling : min:0  max:1
Checking faces in error :
    non-orthogonality > 65  degrees                        : 0
    faces with face pyramid volume < 1e-13                 : 0
    faces with concavity > 80  degrees                     : 0
    faces with skewness > 4   (internal) or 20  (boundary) : 0
    faces with interpolation weights (0..1)  < 0.02        : 0
    faces with volume ratio of neighbour cells < 0.01      : 0
    faces with face twist < 0.02                           : 0
    faces on cells with determinant < 1e-05                : 0
displacementMotionSolver : Successfully moved mesh
displacementMotionSolver : Finished moving mesh ...
truncateDisplacement : Unextruded 1 faces due to non-consecutive vertices being extruded.
truncateDisplacement : Unextruded 0 faces due to stringed edges with inconsistent extrusion.
truncateDisplacement : Unextruded 0 faces due to non-consecutive vertices being extruded.
truncateDisplacement : Unextruded 0 faces due to stringed edges with inconsistent extrusion.

Setting up information for layer truncation ...
Detected 0 baffles across faceZones of type internal


Checking mesh with layer ...
Checking faces in error :
    non-orthogonality > 65  degrees                        : 0
    faces with face pyramid volume < 1e-13                 : 0
    faces with concavity > 80  degrees                     : 0
    faces with skewness > 4   (internal) or 20  (boundary) : 0
    faces with interpolation weights (0..1)  < 0.02        : 0
    faces with volume ratio of neighbour cells < 0.01      : 0
    faces with face twist < 0.02                           : 0
    faces on cells with determinant < 1e-05                : 0
Detected 0 illegal faces (concave, zero area or negative cell pyramid volume)
Extruding 896227 out of 901942 faces (99.3664%). Removed extrusion at 0 faces.
Added 10821378 out of 12627188 cells (85.699%).
Edge intersection testing:
    Number of edges             : 72968740
    Number of edges to retest   : 0
    Number of intersected edges : 11839316

patch    faces    layers   overall thickness
                           [m]       [%]
-----    -----    ------   ---       ---
gtsModel 901942   12       0.00545   96.6    


Doing final balancing
---------------------

Writing 10821378 added cells to cellSet addedCells
Writing 9254901 faces inside added layer to faceSet layerFaces

Writing fields with layer information:
    nSurfaceLayers    : actual number of layers
    thickness         : overall layer thickness
    thicknessFraction : overall layer thickness (fraction of desired thickness)

Layer mesh : cells:23845800  faces:72968740  points:25285204
Cells per refinement level:
    0	104568
    1	327394
    2	1166128
    3	3728110
    4	688772
    5	13534525
    6	4296303
Writing mesh to time 3
Wrote mesh in = 337.11 s.
Layers added in = 337.04 s.
Checking final mesh ...
Checking faces in error :
    non-orthogonality > 65  degrees                        : 0
    faces with face pyramid volume < 1e-13                 : 0
    faces with concavity > 80  degrees                     : 0
    faces with skewness > 4   (internal) or 20  (boundary) : 0
    faces with interpolation weights (0..1)  < 0.02        : 0
    faces with volume ratio of neighbour cells < 0.01      : 0
    faces with face twist < 0.02                           : 0
    faces on cells with determinant < 1e-05                : 0
Finished meshing without any errors
Finished meshing in = 344.86 s.
End

Finalising parallel run
