/*---------------------------------------------------------------------------*\
| =========                 |                                                 |
| \\      /  F ield         | OpenFOAM: The Open Source CFD Toolbox           |
|  \\    /   O peration     | Version:  v1812                                 |
|   \\  /    A nd           | Web:      www.OpenFOAM.com                      |
|    \\/     M anipulation  |                                                 |
\*---------------------------------------------------------------------------*/
Build  : v1812 OPENFOAM=1812
Arch   : "LSB;label=32;scalar=64"
Exec   : snappyHexMesh -parallel -decomposeParDict system/decomposeParDict.60 -dict system/snappyHexMeshLayersDict
Date   : Mar 24 2023
Time   : 15:01:24
Host   : compute-0-0.local
PID    : 92651
I/O    : uncollated
Case   : /share/storage/finzeo/Mallas/test/GTS_ofcom9
nProcs : 60
Hosts  :
(
    (compute-0-0.local 20)
    (compute-0-1.local 20)
    (compute-0-5.local 20)
)
Pstream initialized with:
    floatTransfer      : 0
    nProcsSimpleSum    : 0
    commsType          : nonBlocking
    polling iterations : 0
trapFpe: Floating point exception trapping enabled (FOAM_SIGFPE).
fileModificationChecking : Monitoring run-time modified files using timeStampMaster (fileModificationSkew 10)
allowSystemOperations : Allowing user-supplied system call operations

// * * * * * * * * * * * * * * * * * * * * * * * * * * * * * * * * * * * * * //
Create time

Create mesh for time = 2

Read mesh in = 1.04 s

Overall mesh bounding box  : (-7.33423 -1.524 -0.0762) (4.40057 1.524 2.0574)
Relative tolerance         : 1e-06
Absolute matching distance : 1.23105e-05

Reading refinement surfaces.
--> FOAM Warning : 
    From function Foam::refinementSurfaces::refinementSurfaces(const Foam::searchableSurfaces&, const Foam::dictionary&, Foam::label)
    in file refinementSurfaces/refinementSurfaces.C at line 376
    Reading "/share/storage/finzeo/Mallas/test/GTS_ofcom9/system/snappyHexMeshLayersDict.castellatedMeshControls.refinementSurfaces"
    Not all entries in refinementSurfaces dictionary were used. The following entries were not used : 
6
(
floor
inlet
left
outlet
right
top
)

Read refinement surfaces in = 0.1 s

Reading refinement shells.
Refinement level according to distance to GTS-Storms-v8.stl
    level 5 for all cells within 0.015 metre.
Refinement level 1 for all cells inside refinementBox1
Refinement level 2 for all cells inside refinementBox2
Refinement level 3 for all cells inside refinementBox3
Read refinement shells in = 0 s

Setting refinement level of surface to be consistent with shells.
For geometry GTS-Storms-v8.stl detected 0 uncached triangles out of 17488
Checked shell refinement in = 0.16 s

Reading features.
Read edgeMesh GTS-Storms-v8.eMesh
    points      : 1368
    edges       : 1380
    boundingBox : (-2.4763 -0.161925 -0.0762) (0 0.161925 0.4508)

Refinement level according to distance to "GTS-Storms-v8.eMesh" (1368 points, 1380 edges).
    level 6 for all cells within 0.006 metre.
Read features in = 0.05 s


Determining initial surface intersections
-----------------------------------------

Edge intersection testing:
    Number of edges             : 40103563
    Number of edges to retest   : 40103563
    Number of intersected edges : 883183
Calculated surface intersections in = 3.95 s

Initial mesh : cells:12987639  faces:40103563  points:14136414
Cells per refinement level:
    0	116523
    1	395196
    2	1350200
    3	4240631
    4	741906
    5	5301812
    6	841371

Adding patches for surface regions
----------------------------------

Patch Type                Region                        
----- ----                ------                        
gtsModel:

6     wall                gtsModel                      

Added patches in = 0 s

Edge intersection testing:
    Number of edges             : 40103563
    Number of edges to retest   : 884211
    Number of intersected edges : 884211
Selecting decompositionMethod hierarchical [60]
Layer thickness specified as first layer and expansion ratio.

Shrinking and layer addition phase
----------------------------------

Using mesh parameters 
{
    maxNonOrtho     70;
    maxBoundarySkewness 20;
    maxInternalSkewness 4;
    maxConcave      80;
    minVol          1e-17;
    minTetQuality   -1e+30;
    minArea         -1;
    minTwist        0.0002;
    minDeterminant  1e-05;
    minFaceWeight   0.02;
    minVolRatio     0.01;
    minTriangleTwist -1;
    nSmoothScale    4;
    errorReduction  0.75;
    relaxed
    {
        maxNonOrtho     75;
    }
}



Merging all faces of a cell
---------------------------
    - which are on the same patch
    - which make an angle < 130 degrees (cos:-0.642788)
    - as long as the resulting face doesn't become concave by more than 90 degrees
      (0=straight, 180=fully concave)

Merging 400 sets of faces.

Edge intersection testing:
    Number of edges             : 40103153
    Number of edges to retest   : 1873
    Number of intersected edges : 883639

Undo iteration 0
----------------
Checking faces in error :
    non-orthogonality > 70  degrees                        : 0
    faces with face pyramid volume < 1e-17                 : 0
    faces with concavity > 80  degrees                     : 202
    faces with skewness > 4   (internal) or 20  (boundary) : 0
    faces with interpolation weights (0..1)  < 0.02        : 0
    faces with volume ratio of neighbour cells < 0.01      : 0
    faces with face twist < 0.0002                          : 2
    faces on cells with determinant < 1e-05                : 0
Masters that need to be restored:204
Edge intersection testing:
    Number of edges             : 40103357
    Number of edges to retest   : 1123
    Number of intersected edges : 883993


Undo iteration 1
----------------
Checking faces in error :
    non-orthogonality > 70  degrees                        : 0
    faces with face pyramid volume < 1e-17                 : 0
    faces with concavity > 80  degrees                     : 0
    faces with skewness > 4   (internal) or 20  (boundary) : 0
    faces with interpolation weights (0..1)  < 0.02        : 0
    faces with volume ratio of neighbour cells < 0.01      : 0
    faces with face twist < 0.0002                          : 0
    faces on cells with determinant < 1e-05                : 0

Merging all points on surface that
- are used by only two boundary faces and
- make an angle with a cosine of more than -0.642788.

Removing 121 straight edge points ...

Edge intersection testing:
    Number of edges             : 40103357
    Number of edges to retest   : 995
    Number of intersected edges : 883993

Undo iteration 0
----------------
Checking faces in error :
    non-orthogonality > 70  degrees                        : 0
    faces with face pyramid volume < 1e-17                 : 0
    faces with concavity > 80  degrees                     : 0
    faces with skewness > 4   (internal) or 20  (boundary) : 0
    faces with interpolation weights (0..1)  < 0.02        : 0
    faces with volume ratio of neighbour cells < 0.01      : 0
    faces with face twist < 0.0002                          : 0
    faces on cells with determinant < 1e-05                : 0

Checking mesh manifoldness ...
Outside of mesh is multiply connected across edges or points.
This is not a fatal error but might cause some unexpected behaviour.


Checking initial mesh ...
Checking faces in error :
    non-orthogonality > 70  degrees                        : 0
    faces with face pyramid volume < 1e-17                 : 0
    faces with concavity > 80  degrees                     : 0
    faces with skewness > 4   (internal) or 20  (boundary) : 0
    faces with interpolation weights (0..1)  < 0.02        : 0
    faces with volume ratio of neighbour cells < 0.01      : 0
    faces with face twist < 0.0002                          : 0
    faces on cells with determinant < 1e-05                : 0
Detected 0 illegal faces (concave, zero area or negative cell pyramid volume)
Duplicating 0 points on faceZones of type boundary

Handling points with inconsistent layer specification ...
dupNonManifoldPoints : Found : 0 non-manifold points (out of 15280732)

Adding in total 0 inter-processor patches to handle extrusion of non-manifold processor boundaries.

Handling points with inconsistent layer specification ...

Handling non-manifold points ...

Checking patch manifoldness ...
Outside of local patch is multiply connected across edges or points at 0 points.
Set displacement to zero for all 0 non-manifold points

Handling feature edges (angle < 130) ...
Set displacement to zero for points on 0 feature edges

patch    faces    layers avg thickness[m]
                         near-wall overall
-----    -----    ------ --------- -------
gtsModel 884005   11     0.000223  0.00543 

Selecting externalDisplacementMeshMover displacementMotionSolver
Selecting motion solver: displacementLaplacian
Selecting motion diffusion: quadratic
Selecting motion diffusion: inverseDistance
Selecting patchDistMethod meshWave

Layer addition iteration 0
--------------------------

Determining displacement for added points according to pointNormal ...
Detected 0 points with point normal pointing through faces.
Reset displacement at 0 points to average of surrounding points.

fieldSmoother : Smoothing field ...
    Iteration 0   residual 4.14919e-16
GAMG:  Solving for cellDisplacementx, Initial residual = 1, Final residual = 8.98951e-18, No Iterations 1
GAMG:  Solving for cellDisplacementy, Initial residual = 1, Final residual = 9.8672e-18, No Iterations 1
GAMG:  Solving for cellDisplacementz, Initial residual = 1, Final residual = 1.38693e-17, No Iterations 1
displacementMotionSolver : Moving mesh ...
displacementMotionSolver : Iteration 0
Moving mesh using displacement scaling : min:1  max:1
Checking faces in error :
    non-orthogonality > 70  degrees                        : 32546
    faces with face pyramid volume < 1e-17                 : 2511
    faces with concavity > 80  degrees                     : 4
    faces with skewness > 4   (internal) or 20  (boundary) : 0
    faces with interpolation weights (0..1)  < 0.02        : 58
    faces with volume ratio of neighbour cells < 0.01      : 45
    faces with face twist < 0.0002                          : 262
    faces on cells with determinant < 1e-05                : 0
displacementMotionSolver : Iteration 1
Moving mesh using displacement scaling : min:0.75  max:1
Checking faces in error :
    non-orthogonality > 70  degrees                        : 29700
    faces with face pyramid volume < 1e-17                 : 2046
    faces with concavity > 80  degrees                     : 26
    faces with skewness > 4   (internal) or 20  (boundary) : 0
    faces with interpolation weights (0..1)  < 0.02        : 38
    faces with volume ratio of neighbour cells < 0.01      : 46
    faces with face twist < 0.0002                          : 2449
    faces on cells with determinant < 1e-05                : 4
displacementMotionSolver : Iteration 2
Moving mesh using displacement scaling : min:0.5625  max:1
Checking faces in error :
    non-orthogonality > 70  degrees                        : 19759
    faces with face pyramid volume < 1e-17                 : 2236
    faces with concavity > 80  degrees                     : 519
    faces with skewness > 4   (internal) or 20  (boundary) : 5
    faces with interpolation weights (0..1)  < 0.02        : 18
    faces with volume ratio of neighbour cells < 0.01      : 20
    faces with face twist < 0.0002                          : 1471
    faces on cells with determinant < 1e-05                : 8
displacementMotionSolver : Iteration 3
Moving mesh using displacement scaling : min:0.421875  max:1
Checking faces in error :
    non-orthogonality > 70  degrees                        : 6788
    faces with face pyramid volume < 1e-17                 : 566
    faces with concavity > 80  degrees                     : 98
    faces with skewness > 4   (internal) or 20  (boundary) : 0
    faces with interpolation weights (0..1)  < 0.02        : 21
    faces with volume ratio of neighbour cells < 0.01      : 23
    faces with face twist < 0.0002                          : 652
    faces on cells with determinant < 1e-05                : 4
displacementMotionSolver : Iteration 4
Moving mesh using displacement scaling : min:0.316406  max:1
Checking faces in error :
    non-orthogonality > 70  degrees                        : 355
    faces with face pyramid volume < 1e-17                 : 60
    faces with concavity > 80  degrees                     : 106
    faces with skewness > 4   (internal) or 20  (boundary) : 0
    faces with interpolation weights (0..1)  < 0.02        : 15
    faces with volume ratio of neighbour cells < 0.01      : 7
    faces with face twist < 0.0002                          : 140
    faces on cells with determinant < 1e-05                : 0
displacementMotionSolver : Iteration 5
Moving mesh using displacement scaling : min:0.237305  max:1
Checking faces in error :
    non-orthogonality > 70  degrees                        : 106
    faces with face pyramid volume < 1e-17                 : 36
    faces with concavity > 80  degrees                     : 115
    faces with skewness > 4   (internal) or 20  (boundary) : 0
    faces with interpolation weights (0..1)  < 0.02        : 10
    faces with volume ratio of neighbour cells < 0.01      : 7
    faces with face twist < 0.0002                          : 59
    faces on cells with determinant < 1e-05                : 0
displacementMotionSolver : Iteration 6
Moving mesh using displacement scaling : min:0.177979  max:1
Checking faces in error :
    non-orthogonality > 70  degrees                        : 27
    faces with face pyramid volume < 1e-17                 : 19
    faces with concavity > 80  degrees                     : 84
    faces with skewness > 4   (internal) or 20  (boundary) : 0
    faces with interpolation weights (0..1)  < 0.02        : 13
    faces with volume ratio of neighbour cells < 0.01      : 5
    faces with face twist < 0.0002                          : 14
    faces on cells with determinant < 1e-05                : 0
displacementMotionSolver : Iteration 7
Moving mesh using displacement scaling : min:0.133484  max:1
Checking faces in error :
    non-orthogonality > 70  degrees                        : 16
    faces with face pyramid volume < 1e-17                 : 15
    faces with concavity > 80  degrees                     : 43
    faces with skewness > 4   (internal) or 20  (boundary) : 0
    faces with interpolation weights (0..1)  < 0.02        : 5
    faces with volume ratio of neighbour cells < 0.01      : 10
    faces with face twist < 0.0002                          : 9
    faces on cells with determinant < 1e-05                : 0
displacementMotionSolver : Iteration 8
Moving mesh using displacement scaling : min:0.100113  max:1
Checking faces in error :
    non-orthogonality > 70  degrees                        : 0
    faces with face pyramid volume < 1e-17                 : 8
    faces with concavity > 80  degrees                     : 16
    faces with skewness > 4   (internal) or 20  (boundary) : 0
    faces with interpolation weights (0..1)  < 0.02        : 4
    faces with volume ratio of neighbour cells < 0.01      : 8
    faces with face twist < 0.0002                          : 4
    faces on cells with determinant < 1e-05                : 0
displacementMotionSolver : Iteration 9
Moving mesh using displacement scaling : min:0.0750847  max:1
Checking faces in error :
    non-orthogonality > 70  degrees                        : 2
    faces with face pyramid volume < 1e-17                 : 11
    faces with concavity > 80  degrees                     : 12
    faces with skewness > 4   (internal) or 20  (boundary) : 0
    faces with interpolation weights (0..1)  < 0.02        : 1
    faces with volume ratio of neighbour cells < 0.01      : 6
    faces with face twist < 0.0002                          : 3
    faces on cells with determinant < 1e-05                : 2
displacementMotionSolver : Iteration 10
displacementMotionSolver : Displacement scaling for error reduction set to 0.
Moving mesh using displacement scaling : min:0.0563135  max:1
Checking faces in error :
    non-orthogonality > 70  degrees                        : 0
    faces with face pyramid volume < 1e-17                 : 8
    faces with concavity > 80  degrees                     : 5
    faces with skewness > 4   (internal) or 20  (boundary) : 0
    faces with interpolation weights (0..1)  < 0.02        : 3
    faces with volume ratio of neighbour cells < 0.01      : 5
    faces with face twist < 0.0002                          : 2
    faces on cells with determinant < 1e-05                : 0
displacementMotionSolver : Iteration 11
Moving mesh using displacement scaling : min:0  max:1
Checking faces in error :
    non-orthogonality > 70  degrees                        : 25
    faces with face pyramid volume < 1e-17                 : 1
    faces with concavity > 80  degrees                     : 4
    faces with skewness > 4   (internal) or 20  (boundary) : 0
    faces with interpolation weights (0..1)  < 0.02        : 0
    faces with volume ratio of neighbour cells < 0.01      : 0
    faces with face twist < 0.0002                          : 5
    faces on cells with determinant < 1e-05                : 0
displacementMotionSolver : Iteration 12
Moving mesh using displacement scaling : min:0  max:1
Checking faces in error :
    non-orthogonality > 70  degrees                        : 92
    faces with face pyramid volume < 1e-17                 : 8
    faces with concavity > 80  degrees                     : 3
    faces with skewness > 4   (internal) or 20  (boundary) : 0
    faces with interpolation weights (0..1)  < 0.02        : 0
    faces with volume ratio of neighbour cells < 0.01      : 1
    faces with face twist < 0.0002                          : 8
    faces on cells with determinant < 1e-05                : 0
displacementMotionSolver : Iteration 13
Moving mesh using displacement scaling : min:0  max:1
Checking faces in error :
    non-orthogonality > 70  degrees                        : 235
    faces with face pyramid volume < 1e-17                 : 11
    faces with concavity > 80  degrees                     : 5
    faces with skewness > 4   (internal) or 20  (boundary) : 0
    faces with interpolation weights (0..1)  < 0.02        : 0
    faces with volume ratio of neighbour cells < 0.01      : 1
    faces with face twist < 0.0002                          : 25
    faces on cells with determinant < 1e-05                : 0
displacementMotionSolver : Iteration 14
Moving mesh using displacement scaling : min:0  max:1
Checking faces in error :
    non-orthogonality > 70  degrees                        : 482
    faces with face pyramid volume < 1e-17                 : 36
    faces with concavity > 80  degrees                     : 13
    faces with skewness > 4   (internal) or 20  (boundary) : 0
    faces with interpolation weights (0..1)  < 0.02        : 2
    faces with volume ratio of neighbour cells < 0.01      : 1
    faces with face twist < 0.0002                          : 53
    faces on cells with determinant < 1e-05                : 0
displacementMotionSolver : Iteration 15
Moving mesh using displacement scaling : min:0  max:1
Checking faces in error :
    non-orthogonality > 70  degrees                        : 516
    faces with face pyramid volume < 1e-17                 : 68
    faces with concavity > 80  degrees                     : 17
    faces with skewness > 4   (internal) or 20  (boundary) : 0
    faces with interpolation weights (0..1)  < 0.02        : 1
    faces with volume ratio of neighbour cells < 0.01      : 0
    faces with face twist < 0.0002                          : 43
    faces on cells with determinant < 1e-05                : 0
displacementMotionSolver : Iteration 16
Moving mesh using displacement scaling : min:0  max:1
Checking faces in error :
    non-orthogonality > 70  degrees                        : 472
    faces with face pyramid volume < 1e-17                 : 43
    faces with concavity > 80  degrees                     : 11
    faces with skewness > 4   (internal) or 20  (boundary) : 0
    faces with interpolation weights (0..1)  < 0.02        : 0
    faces with volume ratio of neighbour cells < 0.01      : 0
    faces with face twist < 0.0002                          : 47
    faces on cells with determinant < 1e-05                : 0
displacementMotionSolver : Iteration 17
Moving mesh using displacement scaling : min:0  max:1
Checking faces in error :
    non-orthogonality > 70  degrees                        : 549
    faces with face pyramid volume < 1e-17                 : 28
    faces with concavity > 80  degrees                     : 13
    faces with skewness > 4   (internal) or 20  (boundary) : 0
    faces with interpolation weights (0..1)  < 0.02        : 0
    faces with volume ratio of neighbour cells < 0.01      : 0
    faces with face twist < 0.0002                          : 69
    faces on cells with determinant < 1e-05                : 0
displacementMotionSolver : Iteration 18
Moving mesh using displacement scaling : min:0  max:1
Checking faces in error :
    non-orthogonality > 70  degrees                        : 847
    faces with face pyramid volume < 1e-17                 : 65
    faces with concavity > 80  degrees                     : 11
    faces with skewness > 4   (internal) or 20  (boundary) : 3
    faces with interpolation weights (0..1)  < 0.02        : 5
    faces with volume ratio of neighbour cells < 0.01      : 0
    faces with face twist < 0.0002                          : 85
    faces on cells with determinant < 1e-05                : 0
displacementMotionSolver : Iteration 19
Moving mesh using displacement scaling : min:0  max:1
Checking faces in error :
    non-orthogonality > 70  degrees                        : 907
    faces with face pyramid volume < 1e-17                 : 75
    faces with concavity > 80  degrees                     : 12
    faces with skewness > 4   (internal) or 20  (boundary) : 0
    faces with interpolation weights (0..1)  < 0.02        : 3
    faces with volume ratio of neighbour cells < 0.01      : 0
    faces with face twist < 0.0002                          : 138
    faces on cells with determinant < 1e-05                : 0
displacementMotionSolver : Finished moving mesh ...
truncateDisplacement : Unextruded 2 faces due to non-consecutive vertices being extruded.
truncateDisplacement : Unextruded 0 faces due to stringed edges with inconsistent extrusion.
truncateDisplacement : Unextruded 0 faces due to non-consecutive vertices being extruded.
truncateDisplacement : Unextruded 0 faces due to stringed edges with inconsistent extrusion.

Setting up information for layer truncation ...
Detected 0 baffles across faceZones of type internal


Checking mesh with layer ...
Checking faces in error :
    non-orthogonality > 70  degrees                        : 927
    faces with face pyramid volume < 1e-17                 : 64
    faces with concavity > 80  degrees                     : 14
    faces with skewness > 4   (internal) or 20  (boundary) : 2
    faces with interpolation weights (0..1)  < 0.02        : 3
    faces with volume ratio of neighbour cells < 0.01      : 0
    faces with face twist < 0.0002                          : 145
    faces on cells with determinant < 1e-05                : 0
Detected 1155 illegal faces (concave, zero area or negative cell pyramid volume)
Extruding 883220 out of 884005 faces (99.9112%). Removed extrusion at 47 faces.
Added 9644229 out of 9724055 cells (99.1791%).


Layer addition iteration 1
--------------------------

Determining displacement for added points according to pointNormal ...
Detected 0 points with point normal pointing through faces.
Reset displacement at 0 points to average of surrounding points.

fieldSmoother : Smoothing field ...
    Iteration 0   residual 7.33379e-07
GAMG:  Solving for cellDisplacementx, Initial residual = 0.00439471, Final residual = 4.22801e-18, No Iterations 1
GAMG:  Solving for cellDisplacementy, Initial residual = 0.000532976, Final residual = 4.92502e-18, No Iterations 1
GAMG:  Solving for cellDisplacementz, Initial residual = 0.00088311, Final residual = 6.40409e-18, No Iterations 1
displacementMotionSolver : Moving mesh ...
displacementMotionSolver : Iteration 0
Moving mesh using displacement scaling : min:1  max:1
Checking faces in error :
    non-orthogonality > 70  degrees                        : 32689
    faces with face pyramid volume < 1e-17                 : 1819
    faces with concavity > 80  degrees                     : 7
    faces with skewness > 4   (internal) or 20  (boundary) : 1
    faces with interpolation weights (0..1)  < 0.02        : 17
    faces with volume ratio of neighbour cells < 0.01      : 41
    faces with face twist < 0.0002                          : 405
    faces on cells with determinant < 1e-05                : 19
displacementMotionSolver : Iteration 1
Moving mesh using displacement scaling : min:0.75  max:1
Checking faces in error :
    non-orthogonality > 70  degrees                        : 28369
    faces with face pyramid volume < 1e-17                 : 1005
    faces with concavity > 80  degrees                     : 225
    faces with skewness > 4   (internal) or 20  (boundary) : 1
    faces with interpolation weights (0..1)  < 0.02        : 20
    faces with volume ratio of neighbour cells < 0.01      : 33
    faces with face twist < 0.0002                          : 3076
    faces on cells with determinant < 1e-05                : 5
displacementMotionSolver : Iteration 2
Moving mesh using displacement scaling : min:0.5625  max:1
Checking faces in error :
    non-orthogonality > 70  degrees                        : 16785
    faces with face pyramid volume < 1e-17                 : 1398
    faces with concavity > 80  degrees                     : 399
    faces with skewness > 4   (internal) or 20  (boundary) : 3
    faces with interpolation weights (0..1)  < 0.02        : 22
    faces with volume ratio of neighbour cells < 0.01      : 5
    faces with face twist < 0.0002                          : 1123
    faces on cells with determinant < 1e-05                : 45
displacementMotionSolver : Iteration 3
Moving mesh using displacement scaling : min:0.421875  max:1
Checking faces in error :
    non-orthogonality > 70  degrees                        : 3196
    faces with face pyramid volume < 1e-17                 : 194
    faces with concavity > 80  degrees                     : 132
    faces with skewness > 4   (internal) or 20  (boundary) : 0
    faces with interpolation weights (0..1)  < 0.02        : 9
    faces with volume ratio of neighbour cells < 0.01      : 6
    faces with face twist < 0.0002                          : 265
    faces on cells with determinant < 1e-05                : 2
displacementMotionSolver : Iteration 4
Moving mesh using displacement scaling : min:0.316406  max:1
Checking faces in error :
    non-orthogonality > 70  degrees                        : 279
    faces with face pyramid volume < 1e-17                 : 97
    faces with concavity > 80  degrees                     : 84
    faces with skewness > 4   (internal) or 20  (boundary) : 0
    faces with interpolation weights (0..1)  < 0.02        : 8
    faces with volume ratio of neighbour cells < 0.01      : 12
    faces with face twist < 0.0002                          : 167
    faces on cells with determinant < 1e-05                : 3
displacementMotionSolver : Iteration 5
Moving mesh using displacement scaling : min:0.237305  max:1
Checking faces in error :
    non-orthogonality > 70  degrees                        : 61
    faces with face pyramid volume < 1e-17                 : 45
    faces with concavity > 80  degrees                     : 24
    faces with skewness > 4   (internal) or 20  (boundary) : 0
    faces with interpolation weights (0..1)  < 0.02        : 2
    faces with volume ratio of neighbour cells < 0.01      : 2
    faces with face twist < 0.0002                          : 53
    faces on cells with determinant < 1e-05                : 0
displacementMotionSolver : Iteration 6
Moving mesh using displacement scaling : min:0.177979  max:1
Checking faces in error :
    non-orthogonality > 70  degrees                        : 3
    faces with face pyramid volume < 1e-17                 : 14
    faces with concavity > 80  degrees                     : 2
    faces with skewness > 4   (internal) or 20  (boundary) : 0
    faces with interpolation weights (0..1)  < 0.02        : 0
    faces with volume ratio of neighbour cells < 0.01      : 0
    faces with face twist < 0.0002                          : 28
    faces on cells with determinant < 1e-05                : 0
displacementMotionSolver : Iteration 7
Moving mesh using displacement scaling : min:0.133484  max:1
Checking faces in error :
    non-orthogonality > 70  degrees                        : 0
    faces with face pyramid volume < 1e-17                 : 13
    faces with concavity > 80  degrees                     : 0
    faces with skewness > 4   (internal) or 20  (boundary) : 0
    faces with interpolation weights (0..1)  < 0.02        : 1
    faces with volume ratio of neighbour cells < 0.01      : 0
    faces with face twist < 0.0002                          : 23
    faces on cells with determinant < 1e-05                : 0
displacementMotionSolver : Iteration 8
Moving mesh using displacement scaling : min:0.129894  max:1
Checking faces in error :
    non-orthogonality > 70  degrees                        : 0
    faces with face pyramid volume < 1e-17                 : 12
    faces with concavity > 80  degrees                     : 0
    faces with skewness > 4   (internal) or 20  (boundary) : 0
    faces with interpolation weights (0..1)  < 0.02        : 1
    faces with volume ratio of neighbour cells < 0.01      : 0
    faces with face twist < 0.0002                          : 22
    faces on cells with determinant < 1e-05                : 0
displacementMotionSolver : Iteration 9
Moving mesh using displacement scaling : min:0.11237  max:1
Checking faces in error :
    non-orthogonality > 70  degrees                        : 0
    faces with face pyramid volume < 1e-17                 : 12
    faces with concavity > 80  degrees                     : 0
    faces with skewness > 4   (internal) or 20  (boundary) : 0
    faces with interpolation weights (0..1)  < 0.02        : 0
    faces with volume ratio of neighbour cells < 0.01      : 0
    faces with face twist < 0.0002                          : 13
    faces on cells with determinant < 1e-05                : 0
displacementMotionSolver : Iteration 10
displacementMotionSolver : Displacement scaling for error reduction set to 0.
Moving mesh using displacement scaling : min:0.0845469  max:1
Checking faces in error :
    non-orthogonality > 70  degrees                        : 0
    faces with face pyramid volume < 1e-17                 : 12
    faces with concavity > 80  degrees                     : 0
    faces with skewness > 4   (internal) or 20  (boundary) : 0
    faces with interpolation weights (0..1)  < 0.02        : 0
    faces with volume ratio of neighbour cells < 0.01      : 0
    faces with face twist < 0.0002                          : 9
    faces on cells with determinant < 1e-05                : 0
displacementMotionSolver : Iteration 11
Moving mesh using displacement scaling : min:0  max:1
Checking faces in error :
    non-orthogonality > 70  degrees                        : 0
    faces with face pyramid volume < 1e-17                 : 0
    faces with concavity > 80  degrees                     : 0
    faces with skewness > 4   (internal) or 20  (boundary) : 0
    faces with interpolation weights (0..1)  < 0.02        : 0
    faces with volume ratio of neighbour cells < 0.01      : 0
    faces with face twist < 0.0002                          : 6
    faces on cells with determinant < 1e-05                : 0
displacementMotionSolver : Iteration 12
Moving mesh using displacement scaling : min:0  max:1
Checking faces in error :
    non-orthogonality > 70  degrees                        : 0
    faces with face pyramid volume < 1e-17                 : 0
    faces with concavity > 80  degrees                     : 0
    faces with skewness > 4   (internal) or 20  (boundary) : 0
    faces with interpolation weights (0..1)  < 0.02        : 0
    faces with volume ratio of neighbour cells < 0.01      : 0
    faces with face twist < 0.0002                          : 0
    faces on cells with determinant < 1e-05                : 0
displacementMotionSolver : Successfully moved mesh
displacementMotionSolver : Finished moving mesh ...
truncateDisplacement : Unextruded 0 faces due to non-consecutive vertices being extruded.
truncateDisplacement : Unextruded 0 faces due to stringed edges with inconsistent extrusion.

Setting up information for layer truncation ...
Detected 0 baffles across faceZones of type internal


Checking mesh with layer ...
Checking faces in error :
    non-orthogonality > 70  degrees                        : 0
    faces with face pyramid volume < 1e-17                 : 0
    faces with concavity > 80  degrees                     : 0
    faces with skewness > 4   (internal) or 20  (boundary) : 0
    faces with interpolation weights (0..1)  < 0.02        : 0
    faces with volume ratio of neighbour cells < 0.01      : 0
    faces with face twist < 0.0002                          : 10
    faces on cells with determinant < 1e-05                : 0
Detected 10 illegal faces (concave, zero area or negative cell pyramid volume)
Extruding 882819 out of 884005 faces (99.8658%). Removed extrusion at 10 faces.
Added 9621540 out of 9724055 cells (98.9458%).


Layer addition iteration 2
--------------------------

Determining displacement for added points according to pointNormal ...
Detected 0 points with point normal pointing through faces.
Reset displacement at 0 points to average of surrounding points.

fieldSmoother : Smoothing field ...
    Iteration 0   residual 1.06047e-06
GAMG:  Solving for cellDisplacementx, Initial residual = 0.00143808, Final residual = 4.26818e-18, No Iterations 1
GAMG:  Solving for cellDisplacementy, Initial residual = 0.000324411, Final residual = 4.92919e-18, No Iterations 1
GAMG:  Solving for cellDisplacementz, Initial residual = 0.000437472, Final residual = 6.401e-18, No Iterations 1
displacementMotionSolver : Moving mesh ...
displacementMotionSolver : Iteration 0
Moving mesh using displacement scaling : min:1  max:1
Checking faces in error :
    non-orthogonality > 70  degrees                        : 28860
    faces with face pyramid volume < 1e-17                 : 1032
    faces with concavity > 80  degrees                     : 8
    faces with skewness > 4   (internal) or 20  (boundary) : 0
    faces with interpolation weights (0..1)  < 0.02        : 30
    faces with volume ratio of neighbour cells < 0.01      : 35
    faces with face twist < 0.0002                          : 373
    faces on cells with determinant < 1e-05                : 2
displacementMotionSolver : Iteration 1
Moving mesh using displacement scaling : min:0.75  max:1
Checking faces in error :
    non-orthogonality > 70  degrees                        : 24215
    faces with face pyramid volume < 1e-17                 : 920
    faces with concavity > 80  degrees                     : 289
    faces with skewness > 4   (internal) or 20  (boundary) : 2
    faces with interpolation weights (0..1)  < 0.02        : 12
    faces with volume ratio of neighbour cells < 0.01      : 53
    faces with face twist < 0.0002                          : 2841
    faces on cells with determinant < 1e-05                : 4
displacementMotionSolver : Iteration 2
Moving mesh using displacement scaling : min:0.5625  max:1
Checking faces in error :
    non-orthogonality > 70  degrees                        : 10217
    faces with face pyramid volume < 1e-17                 : 624
    faces with concavity > 80  degrees                     : 246
    faces with skewness > 4   (internal) or 20  (boundary) : 2
    faces with interpolation weights (0..1)  < 0.02        : 20
    faces with volume ratio of neighbour cells < 0.01      : 7
    faces with face twist < 0.0002                          : 795
    faces on cells with determinant < 1e-05                : 6
displacementMotionSolver : Iteration 3
Moving mesh using displacement scaling : min:0.421875  max:1
Checking faces in error :
    non-orthogonality > 70  degrees                        : 1578
    faces with face pyramid volume < 1e-17                 : 182
    faces with concavity > 80  degrees                     : 102
    faces with skewness > 4   (internal) or 20  (boundary) : 0
    faces with interpolation weights (0..1)  < 0.02        : 15
    faces with volume ratio of neighbour cells < 0.01      : 2
    faces with face twist < 0.0002                          : 259
    faces on cells with determinant < 1e-05                : 2
displacementMotionSolver : Iteration 4
Moving mesh using displacement scaling : min:0.316406  max:1
Checking faces in error :
    non-orthogonality > 70  degrees                        : 264
    faces with face pyramid volume < 1e-17                 : 81
    faces with concavity > 80  degrees                     : 66
    faces with skewness > 4   (internal) or 20  (boundary) : 0
    faces with interpolation weights (0..1)  < 0.02        : 4
    faces with volume ratio of neighbour cells < 0.01      : 7
    faces with face twist < 0.0002                          : 103
    faces on cells with determinant < 1e-05                : 0
displacementMotionSolver : Iteration 5
Moving mesh using displacement scaling : min:0.237305  max:1
Checking faces in error :
    non-orthogonality > 70  degrees                        : 76
    faces with face pyramid volume < 1e-17                 : 31
    faces with concavity > 80  degrees                     : 19
    faces with skewness > 4   (internal) or 20  (boundary) : 0
    faces with interpolation weights (0..1)  < 0.02        : 5
    faces with volume ratio of neighbour cells < 0.01      : 2
    faces with face twist < 0.0002                          : 50
    faces on cells with determinant < 1e-05                : 0
displacementMotionSolver : Iteration 6
Moving mesh using displacement scaling : min:0.177979  max:1
Checking faces in error :
    non-orthogonality > 70  degrees                        : 15
    faces with face pyramid volume < 1e-17                 : 5
    faces with concavity > 80  degrees                     : 8
    faces with skewness > 4   (internal) or 20  (boundary) : 0
    faces with interpolation weights (0..1)  < 0.02        : 4
    faces with volume ratio of neighbour cells < 0.01      : 0
    faces with face twist < 0.0002                          : 11
    faces on cells with determinant < 1e-05                : 0
displacementMotionSolver : Iteration 7
Moving mesh using displacement scaling : min:0.177979  max:1
Checking faces in error :
    non-orthogonality > 70  degrees                        : 10
    faces with face pyramid volume < 1e-17                 : 5
    faces with concavity > 80  degrees                     : 0
    faces with skewness > 4   (internal) or 20  (boundary) : 0
    faces with interpolation weights (0..1)  < 0.02        : 0
    faces with volume ratio of neighbour cells < 0.01      : 0
    faces with face twist < 0.0002                          : 23
    faces on cells with determinant < 1e-05                : 0
displacementMotionSolver : Iteration 8
Moving mesh using displacement scaling : min:0.149992  max:1
Checking faces in error :
    non-orthogonality > 70  degrees                        : 0
    faces with face pyramid volume < 1e-17                 : 0
    faces with concavity > 80  degrees                     : 0
    faces with skewness > 4   (internal) or 20  (boundary) : 0
    faces with interpolation weights (0..1)  < 0.02        : 1
    faces with volume ratio of neighbour cells < 0.01      : 0
    faces with face twist < 0.0002                          : 10
    faces on cells with determinant < 1e-05                : 0
displacementMotionSolver : Iteration 9
Moving mesh using displacement scaling : min:0.112494  max:1
Checking faces in error :
    non-orthogonality > 70  degrees                        : 0
    faces with face pyramid volume < 1e-17                 : 1
    faces with concavity > 80  degrees                     : 0
    faces with skewness > 4   (internal) or 20  (boundary) : 0
    faces with interpolation weights (0..1)  < 0.02        : 0
    faces with volume ratio of neighbour cells < 0.01      : 0
    faces with face twist < 0.0002                          : 8
    faces on cells with determinant < 1e-05                : 0
displacementMotionSolver : Iteration 10
displacementMotionSolver : Displacement scaling for error reduction set to 0.
Moving mesh using displacement scaling : min:0.0843708  max:1
Checking faces in error :
    non-orthogonality > 70  degrees                        : 0
    faces with face pyramid volume < 1e-17                 : 1
    faces with concavity > 80  degrees                     : 0
    faces with skewness > 4   (internal) or 20  (boundary) : 0
    faces with interpolation weights (0..1)  < 0.02        : 0
    faces with volume ratio of neighbour cells < 0.01      : 0
    faces with face twist < 0.0002                          : 8
    faces on cells with determinant < 1e-05                : 0
displacementMotionSolver : Iteration 11
Moving mesh using displacement scaling : min:0  max:1
Checking faces in error :
    non-orthogonality > 70  degrees                        : 0
    faces with face pyramid volume < 1e-17                 : 0
    faces with concavity > 80  degrees                     : 0
    faces with skewness > 4   (internal) or 20  (boundary) : 0
    faces with interpolation weights (0..1)  < 0.02        : 0
    faces with volume ratio of neighbour cells < 0.01      : 0
    faces with face twist < 0.0002                          : 0
    faces on cells with determinant < 1e-05                : 0
displacementMotionSolver : Successfully moved mesh
displacementMotionSolver : Finished moving mesh ...
truncateDisplacement : Unextruded 0 faces due to non-consecutive vertices being extruded.
truncateDisplacement : Unextruded 0 faces due to stringed edges with inconsistent extrusion.

Setting up information for layer truncation ...
Detected 0 baffles across faceZones of type internal


Checking mesh with layer ...
Checking faces in error :
    non-orthogonality > 70  degrees                        : 0
    faces with face pyramid volume < 1e-17                 : 0
    faces with concavity > 80  degrees                     : 0
    faces with skewness > 4   (internal) or 20  (boundary) : 0
    faces with interpolation weights (0..1)  < 0.02        : 0
    faces with volume ratio of neighbour cells < 0.01      : 0
    faces with face twist < 0.0002                          : 0
    faces on cells with determinant < 1e-05                : 0
Detected 0 illegal faces (concave, zero area or negative cell pyramid volume)
Extruding 882654 out of 884005 faces (99.8472%). Removed extrusion at 0 faces.
Added 9619464 out of 9724055 cells (98.9244%).
Edge intersection testing:
    Number of edges             : 69046237
    Number of edges to retest   : 0
    Number of intersected edges : 10503457

patch    faces    layers   overall thickness
                           [m]       [%]
-----    -----    ------   ---       ---
gtsModel 884005   10.9     0.00535   98.6    


Doing final balancing
---------------------

Writing 9619464 added cells to cellSet addedCells
Writing 8034315 faces inside added layer to faceSet layerFaces

Writing fields with layer information:
    nSurfaceLayers    : actual number of layers
    thickness         : overall layer thickness
    thicknessFraction : overall layer thickness (fraction of desired thickness)

Layer mesh : cells:22607103  faces:69046237  points:23840056
Cells per refinement level:
    0	116523
    1	395196
    2	1350200
    3	4240631
    4	741906
    5	13300430
    6	2462217
Writing mesh to time 3
Wrote mesh in = 186.34 s.
Layers added in = 186.3 s.
Checking final mesh ...
Checking faces in error :
    non-orthogonality > 70  degrees                        : 0
    faces with face pyramid volume < 1e-17                 : 0
    faces with concavity > 80  degrees                     : 0
    faces with skewness > 4   (internal) or 20  (boundary) : 0
    faces with interpolation weights (0..1)  < 0.02        : 0
    faces with volume ratio of neighbour cells < 0.01      : 0
    faces with face twist < 0.0002                          : 0
    faces on cells with determinant < 1e-05                : 0
Finished meshing without any errors
Finished meshing in = 193 s.
End

Finalising parallel run
