/*---------------------------------------------------------------------------*\
| =========                 |                                                 |
| \\      /  F ield         | OpenFOAM: The Open Source CFD Toolbox           |
|  \\    /   O peration     | Version:  v1812                                 |
|   \\  /    A nd           | Web:      www.OpenFOAM.com                      |
|    \\/     M anipulation  |                                                 |
\*---------------------------------------------------------------------------*/
Build  : v1812 OPENFOAM=1812
Arch   : "LSB;label=32;scalar=64"
Exec   : snappyHexMesh -parallel -decomposeParDict system/decomposeParDict.60 -dict system/snappyHexMeshDict
Date   : Mar 24 2023
Time   : 14:49:30
Host   : compute-0-0.local
PID    : 92521
I/O    : uncollated
Case   : /share/storage/finzeo/Mallas/test/GTS_ofcom9
nProcs : 60
Hosts  :
(
    (compute-0-0.local 20)
    (compute-0-1.local 20)
    (compute-0-5.local 20)
)
Pstream initialized with:
    floatTransfer      : 0
    nProcsSimpleSum    : 0
    commsType          : nonBlocking
    polling iterations : 0
trapFpe: Floating point exception trapping enabled (FOAM_SIGFPE).
fileModificationChecking : Monitoring run-time modified files using timeStampMaster (fileModificationSkew 10)
allowSystemOperations : Allowing user-supplied system call operations

// * * * * * * * * * * * * * * * * * * * * * * * * * * * * * * * * * * * * * //
Create time

Create mesh for time = 0

Read mesh in = 0.35 s

Overall mesh bounding box  : (-7.33423 -1.524 -0.0762) (4.40057 1.524 2.0574)
Relative tolerance         : 1e-06
Absolute matching distance : 1.23105e-05

Reading refinement surfaces.
--> FOAM Warning : 
    From function Foam::refinementSurfaces::refinementSurfaces(const Foam::searchableSurfaces&, const Foam::dictionary&, Foam::label)
    in file refinementSurfaces/refinementSurfaces.C at line 376
    Reading "/share/storage/finzeo/Mallas/test/GTS_ofcom9/system/snappyHexMeshDict.castellatedMeshControls.refinementSurfaces"
    Not all entries in refinementSurfaces dictionary were used. The following entries were not used : 
6
(
floor
inlet
left
outlet
right
top
)

Read refinement surfaces in = 0.04 s

Reading refinement shells.
Refinement level according to distance to GTS-Storms-v8.stl
    level 5 for all cells within 0.015 metre.
Refinement level 1 for all cells inside refinementBox1
Refinement level 2 for all cells inside refinementBox2
Refinement level 3 for all cells inside refinementBox3
Read refinement shells in = 0 s

Setting refinement level of surface to be consistent with shells.
For geometry GTS-Storms-v8.stl detected 0 uncached triangles out of 17488
Checked shell refinement in = 0.27 s

Reading features.
Read edgeMesh GTS-Storms-v8.eMesh
    points      : 1368
    edges       : 1380
    boundingBox : (-2.4763 -0.161925 -0.0762) (0 0.161925 0.4508)

Refinement level according to distance to "GTS-Storms-v8.eMesh" (1368 points, 1380 edges).
    level 6 for all cells within 0.006 metre.
Read features in = 0.06 s


Determining initial surface intersections
-----------------------------------------

Edge intersection testing:
    Number of edges             : 602172
    Number of edges to retest   : 602172
    Number of intersected edges : 690
Calculated surface intersections in = 0.25 s

Initial mesh : cells:196560  faces:602172  points:209281
Cells per refinement level:
    0	196560

Adding patches for surface regions
----------------------------------

Patch Type                Region                        
----- ----                ------                        
gtsModel:

6     wall                gtsModel                      

Added patches in = 0.04 s

Edge intersection testing:
    Number of edges             : 602172
    Number of edges to retest   : 0
    Number of intersected edges : 690
Selecting decompositionMethod hierarchical [60]

Refinement phase
----------------

Found point (2.0001 0.0001 0.5002) in cell 2581 on processor 13

Feature refinement iteration 0
------------------------------

Marked for refinement due to explicit features             : 160 cells.
Determined cells to refine in = 0.05 s
Selected for feature refinement : 160 cells (out of 196560)
Edge intersection testing:
    Number of edges             : 606462
    Number of edges to retest   : 7413
    Number of intersected edges : 1171
Refined mesh in = 0.06 s
After refinement feature refinement iteration 0 : cells:197680  faces:606462  points:211479
Cells per refinement level:
    0	196400
    1	1280
Balanced mesh in = 0.19 s
After balancing feature refinement iteration 0 : cells:197680  faces:606462  points:211479
Cells per refinement level:
    0	196400
    1	1280

Feature refinement iteration 1
------------------------------

Marked for refinement due to explicit features             : 321 cells.
Determined cells to refine in = 0.38 s
Selected for feature refinement : 607 cells (out of 197680)
Edge intersection testing:
    Number of edges             : 621846
    Number of edges to retest   : 22906
    Number of intersected edges : 3945
Refined mesh in = 0.06 s
After refinement feature refinement iteration 1 : cells:201929  faces:621846  points:218643
Cells per refinement level:
    0	196114
    1	3247
    2	2568
Balanced mesh in = 0.19 s
After balancing feature refinement iteration 1 : cells:201929  faces:621846  points:218643
Cells per refinement level:
    0	196114
    1	3247
    2	2568

Feature refinement iteration 2
------------------------------

Marked for refinement due to explicit features             : 666 cells.
Determined cells to refine in = 0.08 s
Selected for feature refinement : 1502 cells (out of 201929)
Edge intersection testing:
    Number of edges             : 659364
    Number of edges to retest   : 56512
    Number of intersected edges : 9418
Refined mesh in = 0.11 s
After refinement feature refinement iteration 2 : cells:212443  faces:659364  points:235747
Cells per refinement level:
    0	195895
    1	4382
    2	6838
    3	5328
Balanced mesh in = 0.22 s
After balancing feature refinement iteration 2 : cells:212443  faces:659364  points:235747
Cells per refinement level:
    0	195895
    1	4382
    2	6838
    3	5328

Feature refinement iteration 3
------------------------------

Marked for refinement due to explicit features             : 1379 cells.
Determined cells to refine in = 0.09 s
Selected for feature refinement : 3450 cells (out of 212443)
Edge intersection testing:
    Number of edges             : 744888
    Number of edges to retest   : 131927
    Number of intersected edges : 18374
Refined mesh in = 0.1 s
After refinement feature refinement iteration 3 : cells:236593  faces:744888  points:274269
Cells per refinement level:
    0	195691
    1	5460
    2	9957
    3	14453
    4	11032
Balanced mesh in = 0.28 s
After balancing feature refinement iteration 3 : cells:236593  faces:744888  points:274269
Cells per refinement level:
    0	195691
    1	5460
    2	9957
    3	14453
    4	11032

Feature refinement iteration 4
------------------------------

Marked for refinement due to explicit features             : 2767 cells.
Determined cells to refine in = 0.11 s
Selected for feature refinement : 7267 cells (out of 236593)
Edge intersection testing:
    Number of edges             : 924300
    Number of edges to retest   : 280518
    Number of intersected edges : 40446
Refined mesh in = 0.23 s
After refinement feature refinement iteration 4 : cells:287462  faces:924300  points:354603
Cells per refinement level:
    0	195540
    1	6125
    2	13115
    3	21321
    4	29225
    5	22136
Balanced mesh in = 0.53 s
After balancing feature refinement iteration 4 : cells:287462  faces:924300  points:354603
Cells per refinement level:
    0	195540
    1	6125
    2	13115
    3	21321
    4	29225
    5	22136

Feature refinement iteration 5
------------------------------

Marked for refinement due to explicit features             : 5769 cells.
Determined cells to refine in = 0.19 s
Selected for feature refinement : 14449 cells (out of 287462)
Edge intersection testing:
    Number of edges             : 1281645
    Number of edges to retest   : 556934
    Number of intersected edges : 73556
Refined mesh in = 0.27 s
After refinement feature refinement iteration 5 : cells:388605  faces:1281645  points:515078
Cells per refinement level:
    0	195533
    1	6146
    2	12813
    3	23447
    4	43939
    5	60575
    6	46152
Balanced mesh in = 0.52 s
After balancing feature refinement iteration 5 : cells:388605  faces:1281645  points:515078
Cells per refinement level:
    0	195533
    1	6146
    2	12813
    3	23447
    4	43939
    5	60575
    6	46152

Feature refinement iteration 6
------------------------------

Marked for refinement due to explicit features             : 0 cells.
Determined cells to refine in = 0.38 s
Selected for feature refinement : 0 cells (out of 388605)
Stopping refining since too few cells selected.


Surface refinement iteration 0
------------------------------

Marked for refinement due to surface intersection          : 28805 cells.
Marked for refinement due to curvature/regions             : 8818 cells.
Determined cells to refine in = 0.02 s
Selected for refinement : 38877 cells (out of 388605)
Edge intersection testing:
    Number of edges             : 2168658
    Number of edges to retest   : 1329724
    Number of intersected edges : 146992
Refined mesh in = 0.64 s
After refinement surface refinement iteration 0 : cells:660744  faces:2168658  points:857558
Cells per refinement level:
    0	194755
    1	10669
    2	21952
    3	51529
    4	89858
    5	175285
    6	116696
Balanced mesh in = 1.01 s
After balancing surface refinement iteration 0 : cells:660744  faces:2168658  points:857558
Cells per refinement level:
    0	194755
    1	10669
    2	21952
    3	51529
    4	89858
    5	175285
    6	116696

Surface refinement iteration 1
------------------------------

Marked for refinement due to surface intersection          : 54757 cells.
Marked for refinement due to curvature/regions             : 59 cells.
Determined cells to refine in = 0.15 s
Selected for refinement : 58188 cells (out of 660744)
Edge intersection testing:
    Number of edges             : 3471717
    Number of edges to retest   : 1884833
    Number of intersected edges : 229884
Refined mesh in = 0.64 s
After refinement surface refinement iteration 1 : cells:1068060  faces:3471717  points:1345585
Cells per refinement level:
    0	194583
    1	8755
    2	41426
    3	87404
    4	212074
    5	406650
    6	117168
Balanced mesh in = 1.24 s
After balancing surface refinement iteration 1 : cells:1068060  faces:3471717  points:1345585
Cells per refinement level:
    0	194583
    1	8755
    2	41426
    3	87404
    4	212074
    5	406650
    6	117168

Surface refinement iteration 2
------------------------------

Marked for refinement due to surface intersection          : 103302 cells.
Marked for refinement due to curvature/regions             : 58 cells.
Determined cells to refine in = 0.19 s
Selected for refinement : 110202 cells (out of 1068060)
Edge intersection testing:
    Number of edges             : 5937921
    Number of edges to retest   : 3340667
    Number of intersected edges : 385363
Refined mesh in = 0.93 s
After refinement surface refinement iteration 2 : cells:1839474  faces:5937921  points:2268210
Cells per refinement level:
    0	194372
    1	9306
    2	38773
    3	154043
    4	361204
    5	964144
    6	117632
Balanced mesh in = 1.99 s
After balancing surface refinement iteration 2 : cells:1839474  faces:5937921  points:2268210
Cells per refinement level:
    0	194372
    1	9306
    2	38773
    3	154043
    4	361204
    5	964144
    6	117632

Surface refinement iteration 3
------------------------------

Marked for refinement due to surface intersection          : 134422 cells.
Marked for refinement due to curvature/regions             : 104 cells.
Determined cells to refine in = 0.33 s
Selected for refinement : 141782 cells (out of 1839474)
Edge intersection testing:
    Number of edges             : 9112626
    Number of edges to retest   : 4226862
    Number of intersected edges : 589002
Refined mesh in = 1.68 s
After refinement surface refinement iteration 3 : cells:2831948  faces:9112626  points:3456798
Cells per refinement level:
    0	194310
    1	9338
    2	40383
    3	124340
    4	640825
    5	1704288
    6	118464
Balanced mesh in = 3.5 s
After balancing surface refinement iteration 3 : cells:2831948  faces:9112626  points:3456798
Cells per refinement level:
    0	194310
    1	9338
    2	40383
    3	124340
    4	640825
    5	1704288
    6	118464

Surface refinement iteration 4
------------------------------

Marked for refinement due to surface intersection          : 167740 cells.
Marked for refinement due to curvature/regions             : 68 cells.
Determined cells to refine in = 0.51 s
Selected for refinement : 175834 cells (out of 2831948)
Edge intersection testing:
    Number of edges             : 13052397
    Number of edges to retest   : 5158699
    Number of intersected edges : 843050
Refined mesh in = 2.51 s
After refinement surface refinement iteration 4 : cells:4062786  faces:13052397  points:4932998
Cells per refinement level:
    0	194308
    1	9334
    2	40392
    3	117336
    4	539140
    5	3043268
    6	119008
Balanced mesh in = 5.01 s
After balancing surface refinement iteration 4 : cells:4062786  faces:13052397  points:4932998
Cells per refinement level:
    0	194308
    1	9334
    2	40392
    3	117336
    4	539140
    5	3043268
    6	119008

Surface refinement iteration 5
------------------------------

Marked for refinement due to surface intersection          : 1477 cells.
Marked for refinement due to curvature/regions             : 0 cells.
Determined cells to refine in = 0.7 s
Selected for refinement : 1610 cells (out of 4062786)
Edge intersection testing:
    Number of edges             : 13088862
    Number of edges to retest   : 62275
    Number of intersected edges : 846032
Refined mesh in = 2.23 s
After refinement surface refinement iteration 5 : cells:4074056  faces:13088862  points:4946767
Cells per refinement level:
    0	194308
    1	9332
    2	40398
    3	117291
    4	538667
    5	3055052
    6	119008
Skipping balancing since max unbalance 0.0476878 is less than allowable 0.1

Surface refinement iteration 6
------------------------------

Marked for refinement due to surface intersection          : 19 cells.
Marked for refinement due to curvature/regions             : 0 cells.
Determined cells to refine in = 0.71 s
Selected for refinement : 25 cells (out of 4074056)
Edge intersection testing:
    Number of edges             : 13089381
    Number of edges to retest   : 2491
    Number of intersected edges : 846032
Refined mesh in = 2.17 s
After refinement surface refinement iteration 6 : cells:4074231  faces:13089381  points:4946937
Cells per refinement level:
    0	194308
    1	9332
    2	40396
    3	117303
    4	538680
    5	3055204
    6	119008
Skipping balancing since max unbalance 0.0485693 is less than allowable 0.1

Surface refinement iteration 7
------------------------------

Marked for refinement due to surface intersection          : 0 cells.
Marked for refinement due to curvature/regions             : 0 cells.
Determined cells to refine in = 0.7 s
Selected for refinement : 0 cells (out of 4074231)
Stopping refining since too few cells selected.


Removing mesh beyond surface intersections
------------------------------------------

Setting cellZones according to locationsInMesh:
Location : (2.0001 0.0001 0.5002)
    cellZone : none

For cellZone none found point (2.0001 0.0001 0.5002) in global region 0 out of 2 regions.
Keeping all cells containing inside points
Selected for keeping : 4074231 cells.
Edge intersection testing:
    Number of edges             : 13089381
    Number of edges to retest   : 0
    Number of intersected edges : 846032
Setting cellZones according to locationsInMesh:
Location : (2.0001 0.0001 0.5002)
    cellZone : none

For cellZone none found point (2.0001 0.0001 0.5002) in global region 0 out of 2 regions.
Keeping all cells containing inside points
Selected for keeping : 3770784 cells.
Edge intersection testing:
    Number of edges             : 12243608
    Number of edges to retest   : 495004
    Number of intersected edges : 846032

Shell refinement iteration 0
----------------------------

Marked for refinement due to distance to explicit features : 87961 cells.
Marked for refinement due to refinement shells             : 552345 cells.
Determined cells to refine in = 3.88 s
Selected for internal refinement : 700685 cells (out of 3770784)
Edge intersection testing:
    Number of edges             : 27177140
    Number of edges to retest   : 22414511
    Number of intersected edges : 926050
Refined mesh in = 4.32 s
After refinement shell refinement iteration 0 : cells:8675579  faces:27177140  points:9827052
Cells per refinement level:
    0	116828
    1	619840
    2	64520
    3	204323
    4	519226
    5	6111316
    6	1039526
Balanced mesh in = 7.93 s
After balancing shell refinement iteration 0 : cells:8675579  faces:27177140  points:9827053
Cells per refinement level:
    0	116828
    1	619840
    2	64520
    3	204323
    4	519226
    5	6111316
    6	1039526

Shell refinement iteration 1
----------------------------

Marked for refinement due to distance to explicit features : 19280 cells.
Marked for refinement due to refinement shells             : 474996 cells.
Determined cells to refine in = 0.91 s
Selected for internal refinement : 556845 cells (out of 8675579)
Edge intersection testing:
    Number of edges             : 38963609
    Number of edges to retest   : 18068213
    Number of intersected edges : 926477
Refined mesh in = 3.9 s
After refinement shell refinement iteration 1 : cells:12573494  faces:38963609  points:13817580
Cells per refinement level:
    0	116587
    1	394684
    2	1816672
    3	662692
    4	798403
    5	7552466
    6	1231990
Balanced mesh in = 12.14 s
After balancing shell refinement iteration 1 : cells:12573494  faces:38963609  points:13817594
Cells per refinement level:
    0	116587
    1	394684
    2	1816672
    3	662692
    4	798403
    5	7552466
    6	1231990

Shell refinement iteration 2
----------------------------

Marked for refinement due to distance to explicit features : 0 cells.
Marked for refinement due to refinement shells             : 466526 cells.
Determined cells to refine in = 1.05 s
Selected for internal refinement : 467358 cells (out of 12573494)
Edge intersection testing:
    Number of edges             : 48833624
    Number of edges to retest   : 11756695
    Number of intersected edges : 926502
Refined mesh in = 4.88 s
After refinement shell refinement iteration 2 : cells:15845000  faces:48833624  points:17144566
Cells per refinement level:
    0	116569
    1	394828
    2	1350200
    3	4393671
    4	804739
    5	7552755
    6	1232238
Balanced mesh in = 12.14 s
After balancing shell refinement iteration 2 : cells:15845000  faces:48833624  points:17144566
Cells per refinement level:
    0	116569
    1	394828
    2	1350200
    3	4393671
    4	804739
    5	7552755
    6	1232238

Shell refinement iteration 3
----------------------------

Marked for refinement due to distance to explicit features : 0 cells.
Marked for refinement due to refinement shells             : 5 cells.
Determined cells to refine in = 1.14 s
Selected for internal refinement : 22 cells (out of 15845000)
Edge intersection testing:
    Number of edges             : 48834077
    Number of edges to retest   : 2057
    Number of intersected edges : 926502
Refined mesh in = 3.5 s
After refinement shell refinement iteration 3 : cells:15845154  faces:48834077  points:17144716
Cells per refinement level:
    0	116564
    1	394868
    2	1350200
    3	4393667
    4	804768
    5	7552769
    6	1232318
Skipping balancing since max unbalance 0.00144272 is less than allowable 0.1

Shell refinement iteration 4
----------------------------

Marked for refinement due to distance to explicit features : 0 cells.
Marked for refinement due to refinement shells             : 1 cells.
Determined cells to refine in = 1.08 s
Selected for internal refinement : 1 cells (out of 15845154)
Edge intersection testing:
    Number of edges             : 48834092
    Number of edges to retest   : 121
    Number of intersected edges : 926502
Refined mesh in = 3.51 s
After refinement shell refinement iteration 4 : cells:15845161  faces:48834092  points:17144718
Cells per refinement level:
    0	116563
    1	394876
    2	1350200
    3	4393667
    4	804768
    5	7552769
    6	1232318
Skipping balancing since max unbalance 0.0014465 is less than allowable 0.1

Shell refinement iteration 5
----------------------------

Marked for refinement due to distance to explicit features : 0 cells.
Marked for refinement due to refinement shells             : 0 cells.
Determined cells to refine in = 1.09 s
Selected for internal refinement : 0 cells (out of 15845161)
Stopping refining since too few cells selected.


Dangling coarse cells refinement iteration 0
--------------------------------------------

Determined cells to refine in = 0.05 s
Selected for refinement : 40 cells (out of 15845161)
Edge intersection testing:
    Number of edges             : 48834692
    Number of edges to retest   : 4840
    Number of intersected edges : 926502
Refined mesh in = 3.6 s
After refinement coarse cell refinement iteration 0 : cells:15845441  faces:48834692  points:17144798
Cells per refinement level:
    0	116523
    1	395196
    2	1350200
    3	4393667
    4	804768
    5	7552769
    6	1232318
Skipping balancing since max unbalance 0.00147677 is less than allowable 0.1

Dangling coarse cells refinement iteration 1
--------------------------------------------

Determined cells to refine in = 0.71 s
Selected for refinement : 0 cells (out of 15845441)
Stopping refining since too few cells selected.


Dangling coarse cells refinement iteration 0
--------------------------------------------

Determined cells to refine in = 0.01 s
Selected for refinement : 0 cells (out of 15845441)
Stopping refining since too few cells selected.


Refinement transition refinement iteration 0
--------------------------------------------

Determined cells to refine in = 0.02 s
Selected for refinement : 88 cells (out of 15845441)
Edge intersection testing:
    Number of edges             : 48836798
    Number of edges to retest   : 5794
    Number of intersected edges : 926675
Refined mesh in = 3.64 s
After refinement interface cell refinement iteration 0 : cells:15846057  faces:48836798  points:17145669
Cells per refinement level:
    0	116523
    1	395196
    2	1350200
    3	4393667
    4	804768
    5	7552681
    6	1233022
Skipping balancing since max unbalance 0.00248769 is less than allowable 0.1

Refinement transition refinement iteration 1
--------------------------------------------

Determined cells to refine in = 0.71 s
Selected for refinement : 0 cells (out of 15846057)
Stopping refining since too few cells selected.


Splitting mesh at surface intersections
---------------------------------------

Introducing baffles for 926675 faces that are intersected by the surface.

Setting cellZones according to locationsInMesh:
Location : (2.0001 0.0001 0.5002)
    cellZone : none

For cellZone none found point (2.0001 0.0001 0.5002) in global region 0 out of 2 regions.
Edge intersection testing:
    Number of edges             : 49763473
    Number of edges to retest   : 7169098
    Number of intersected edges : 1835454
Created baffles in = 2.82 s


After introducing baffles : cells:15846057  faces:49763473  points:17384802
Cells per refinement level:
    0	116523
    1	395196
    2	1350200
    3	4393667
    4	804768
    5	7552681
    6	1233022

Introducing baffles to block off problem cells
----------------------------------------------

markFacesOnProblemCells : marked 552694 additional internal faces to be converted into baffles.
Analyzed problem cells in = 2.07 s


Introducing baffles to delete problem cells.

Edge intersection testing:
    Number of edges             : 50316167
    Number of edges to retest   : 1766352
    Number of intersected edges : 1835454
Created baffles in = 2.14 s


After introducing baffles : cells:15846057  faces:50316167  points:17388786
Cells per refinement level:
    0	116523
    1	395196
    2	1350200
    3	4393667
    4	804768
    5	7552681
    6	1233022
Setting cellZones according to locationsInMesh:
Location : (2.0001 0.0001 0.5002)
    cellZone : none

For cellZone none found point (2.0001 0.0001 0.5002) in global region 0 out of 264873 regions.
Edge intersection testing:
    Number of edges             : 50316167
    Number of edges to retest   : 7670307
    Number of intersected edges : 1835454

Remove unreachable sections of mesh
-----------------------------------

Keeping all cells containing points 1((2.0001 0.0001 0.5002))
Selected for keeping : 12987639 cells.
Edge intersection testing:
    Number of edges             : 40146025
    Number of edges to retest   : 0
    Number of intersected edges : 920120
Split mesh in = 5.15 s


After subsetting : cells:12987639  faces:40146025  points:14177627
Cells per refinement level:
    0	116523
    1	395196
    2	1350200
    3	4240631
    4	741906
    5	5301812
    6	841371

Introducing zones for interfaces
--------------------------------

Setting cellZones according to locationsInMesh:
Location : (2.0001 0.0001 0.5002)
    cellZone : none

For cellZone none found point (2.0001 0.0001 0.5002) in global region 0 out of 1 regions.
Setting faceZones according to neighbouring cellZones:

Edge intersection testing:
    Number of edges             : 40146025
    Number of edges to retest   : 0
    Number of intersected edges : 920120

Handling cells with snap problems
---------------------------------

Introducing baffles for 920120 faces that are intersected by the surface.

Setting cellZones according to locationsInMesh:
Location : (2.0001 0.0001 0.5002)
    cellZone : none

For cellZone none found point (2.0001 0.0001 0.5002) in global region 0 out of 1 regions.
Edge intersection testing:
    Number of edges             : 40146025
    Number of edges to retest   : 3605409
    Number of intersected edges : 920120
Created baffles in = 3.71 s


After introducing baffles : cells:12987639  faces:40146025  points:14177627
Cells per refinement level:
    0	116523
    1	395196
    2	1350200
    3	4240631
    4	741906
    5	5301812
    6	841371

Introducing baffles to block off problem cells
----------------------------------------------

markFacesOnProblemCells : marked 0 additional internal faces to be converted into baffles.
Analyzed problem cells in = 1.51 s


Introducing baffles to delete problem cells.

Created baffles in = 0.09 s


After introducing baffles : cells:12987639  faces:40146025  points:14177627
Cells per refinement level:
    0	116523
    1	395196
    2	1350200
    3	4240631
    4	741906
    5	5301812
    6	841371
Setting cellZones according to locationsInMesh:
Location : (2.0001 0.0001 0.5002)
    cellZone : none

For cellZone none found point (2.0001 0.0001 0.5002) in global region 0 out of 1 regions.
Edge intersection testing:
    Number of edges             : 40146025
    Number of edges to retest   : 3605409
    Number of intersected edges : 920120

Remove unreachable sections of mesh
-----------------------------------

Split mesh in = 2.45 s


After subsetting : cells:12987639  faces:40146025  points:14177627
Cells per refinement level:
    0	116523
    1	395196
    2	1350200
    3	4240631
    4	741906
    5	5301812
    6	841371

Merge free-standing baffles
---------------------------

freeStandingBaffles : detected 0 free-standing baffles out of 0

Detected free-standing baffles : 0
Merged free-standing baffles in = 0.85 s


dupNonManifoldPoints : Found : 0 non-manifold points (out of 14877036)
Detected unsplittable baffles : 0

Merge refined boundary faces
----------------------------

Merging 5331 sets of faces.

Edge intersection testing:
    Number of edges             : 40139244
    Number of edges to retest   : 33258
    Number of intersected edges : 913340

Undo iteration 0
----------------
Checking faces in error :
    non-orthogonality > 65  degrees                        : 0
    faces with face pyramid volume < 1e-13                 : 0
    faces with face-decomposition tet quality < 1e-15      : 0
    faces with concavity > 80  degrees                     : 0
    faces with skewness > 4   (internal) or 20  (boundary) : 0
    faces with interpolation weights (0..1)  < 0.02        : 0
    faces with volume ratio of neighbour cells < 0.01      : 0
    faces with face twist < 0.02                           : 0
    faces on cells with determinant < 0.001                : 0

Merging all points on surface that
- are used by only two boundary faces and
- make an angle with a cosine of more than 0.707107.

Removing 6414 straight edge points ...

Edge intersection testing:
    Number of edges             : 40139244
    Number of edges to retest   : 35954
    Number of intersected edges : 913340

Undo iteration 0
----------------
Checking faces in error :
    non-orthogonality > 65  degrees                        : 0
    faces with face pyramid volume < 1e-13                 : 0
    faces with face-decomposition tet quality < 1e-15      : 0
    faces with concavity > 80  degrees                     : 0
    faces with skewness > 4   (internal) or 20  (boundary) : 0
    faces with interpolation weights (0..1)  < 0.02        : 0
    faces with volume ratio of neighbour cells < 0.01      : 0
    faces with face twist < 0.02                           : 0
    faces on cells with determinant < 0.001                : 0

Doing final balancing
---------------------

Found 0 zoned faces to keep together.
Found 0 separated coupled faces to keep together.
Refined mesh : cells:12987639  faces:40139244  points:14170495
Cells per refinement level:
    0	116523
    1	395196
    2	1350200
    3	4240631
    4	741906
    5	5301812
    6	841371
Writing mesh to time 1
Wrote mesh in = 15.99 s.
Mesh refined in = 137.89 s.

Morphing phase
--------------

Duplicating 0 points on faceZones of type boundary
Snapping to features in 20 iterations ...
Constructing mesh displacer ...
Using mesh parameters 
{
    maxNonOrtho     65;
    maxBoundarySkewness 20;
    maxInternalSkewness 4;
    maxConcave      80;
    minVol          1e-13;
    minTetQuality   1e-15;
    minArea         -1;
    minTwist        0.02;
    minDeterminant  0.001;
    minFaceWeight   0.02;
    minVolRatio     0.01;
    minTriangleTwist -1;
    nSmoothScale    4;
    errorReduction  0.75;
    relaxed
    {
        maxNonOrtho     75;
    }
}


Checking initial mesh ...
Checking faces in error :
    non-orthogonality > 65  degrees                        : 0
    faces with face pyramid volume < 1e-13                 : 0
    faces with face-decomposition tet quality < 1e-15      : 0
    faces with concavity > 80  degrees                     : 0
    faces with skewness > 4   (internal) or 20  (boundary) : 0
    faces with interpolation weights (0..1)  < 0.02        : 0
    faces with volume ratio of neighbour cells < 0.01      : 0
    faces with face twist < 0.02                           : 0
    faces on cells with determinant < 0.001                : 0
Detected 0 illegal faces (concave, zero area or negative cell pyramid volume)
Checked initial mesh in = 2.36 s


Smoothing patch points ...
Smoothing iteration 0
Found 0 non-manifold point(s).

Scaling iteration 0
Moving mesh using displacement scaling : min:1  max:1
Checking faces in error :
    non-orthogonality > 65  degrees                        : 0
    faces with face pyramid volume < 1e-13                 : 0
    faces with face-decomposition tet quality < 1e-15      : 0
    faces with concavity > 80  degrees                     : 0
    faces with skewness > 4   (internal) or 20  (boundary) : 0
    faces with interpolation weights (0..1)  < 0.02        : 0
    faces with volume ratio of neighbour cells < 0.01      : 0
    faces with face twist < 0.02                           : 0
    faces on cells with determinant < 0.001                : 0
Successfully moved mesh

Smoothing iteration 1
Found 0 non-manifold point(s).

Scaling iteration 0
Moving mesh using displacement scaling : min:1  max:1
Checking faces in error :
    non-orthogonality > 65  degrees                        : 0
    faces with face pyramid volume < 1e-13                 : 0
    faces with face-decomposition tet quality < 1e-15      : 0
    faces with concavity > 80  degrees                     : 0
    faces with skewness > 4   (internal) or 20  (boundary) : 0
    faces with interpolation weights (0..1)  < 0.02        : 0
    faces with volume ratio of neighbour cells < 0.01      : 0
    faces with face twist < 0.02                           : 0
    faces on cells with determinant < 0.001                : 0
Successfully moved mesh

Smoothing iteration 2
Found 0 non-manifold point(s).

Scaling iteration 0
Moving mesh using displacement scaling : min:1  max:1
Checking faces in error :
    non-orthogonality > 65  degrees                        : 0
    faces with face pyramid volume < 1e-13                 : 0
    faces with face-decomposition tet quality < 1e-15      : 0
    faces with concavity > 80  degrees                     : 0
    faces with skewness > 4   (internal) or 20  (boundary) : 0
    faces with interpolation weights (0..1)  < 0.02        : 0
    faces with volume ratio of neighbour cells < 0.01      : 0
    faces with face twist < 0.02                           : 0
    faces on cells with determinant < 0.001                : 0
Successfully moved mesh

Patch points smoothed in = 5.31 s



Morph iteration 0
-----------------
Calculating patchDisplacement as distance to nearest surface point ...
    non-zone points : attract to nearest of all non-zone surfaces
    zone points     : attract to zone surface only

Wanted displacement : average:0.000493469 min:9.41753e-10 max:0.00146432
Calculated surface displacement in = 0.09 s


Detecting near surfaces ...
Overriding nearest with intersection of close gaps at 0 out of 936399 points.
Overriding displacement on features :
   implicit features    : false
   explicit features    : true
   multi-patch features : false

Detected 0 baffle edges out of 1856273 edges.
Baffle points     : 0 of which attracted to :
    feature point : 0
    feature edge  : 0
    rest          : 0

--> FOAM Warning : 
    From function Foam::treeBoundBox::treeBoundBox(const Foam::UList<Foam::Vector<double> >&)
    in file meshes/treeBoundBox/treeBoundBox.C at line 65
    cannot find bounding box for zero-sized pointField, returning zero
Initially selected 10200 mesh points out of 936399 for reverse attraction.
Selected 29815 mesh points out of 936399 for reverse attraction.
Stringing feature edges : changed 36 points
Stringing feature edges : changed 3 points
Stringing feature edges : changed 2 points
Stringing feature edges : changed 2 points
Stringing feature edges : changed 0 points
Attraction:
    linear   : max:(0.00146432 1.73472e-18 0) avg:(1.27412e-05 -1.46454e-06 0.000121688)
    feature  : max:(0 0.000980903 -0.000431458) avg:(4.2499e-07 1.86733e-09 -1.49908e-06)
Feature analysis : total master points :925690 of which attracted to :
    feature point   : 6
    feature edge    : 9996
    nearest surface : 0
    rest            : 915688

Smoothing displacement ...
Iteration 0
Iteration 10
Iteration 20
Iteration 30
Iteration 40
Iteration 50
Iteration 60
Iteration 70
Iteration 80
Iteration 90
Iteration 100
Iteration 110
Iteration 120
Iteration 130
Iteration 140
Iteration 150
Iteration 160
Iteration 170
Iteration 180
Iteration 190
Iteration 200
Iteration 210
Iteration 220
Iteration 230
Iteration 240
Iteration 250
Iteration 260
Iteration 270
Iteration 280
Iteration 290
Displacement smoothed in = 24.08 s


Moving mesh ...

Iteration 0
Moving mesh using displacement scaling : min:1  max:1
Checking faces in error :
    non-orthogonality > 65  degrees                        : 0
    faces with face pyramid volume < 1e-13                 : 0
    faces with face-decomposition tet quality < 1e-15      : 0
    faces with concavity > 80  degrees                     : 0
    faces with skewness > 4   (internal) or 20  (boundary) : 0
    faces with interpolation weights (0..1)  < 0.02        : 0
    faces with volume ratio of neighbour cells < 0.01      : 0
    faces with face twist < 0.02                           : 0
    faces on cells with determinant < 0.001                : 0
Successfully moved mesh
Moved mesh in = 1.54 s



Morph iteration 1
-----------------
Calculating patchDisplacement as distance to nearest surface point ...
    non-zone points : attract to nearest of all non-zone surfaces
    zone points     : attract to zone surface only

Wanted displacement : average:0.000470354 min:9.41753e-10 max:0.00140485
Calculated surface displacement in = 0.09 s


Detecting near surfaces ...
Overriding nearest with intersection of close gaps at 0 out of 936399 points.
Overriding displacement on features :
   implicit features    : false
   explicit features    : true
   multi-patch features : false

Detected 0 baffle edges out of 1856273 edges.
Baffle points     : 0 of which attracted to :
    feature point : 0
    feature edge  : 0
    rest          : 0

--> FOAM Warning : 
    From function Foam::treeBoundBox::treeBoundBox(const Foam::UList<Foam::Vector<double> >&)
    in file meshes/treeBoundBox/treeBoundBox.C at line 65
    cannot find bounding box for zero-sized pointField, returning zero
Initially selected 10199 mesh points out of 936399 for reverse attraction.
Selected 29815 mesh points out of 936399 for reverse attraction.
Stringing feature edges : changed 36 points
Stringing feature edges : changed 3 points
Stringing feature edges : changed 2 points
Stringing feature edges : changed 2 points
Stringing feature edges : changed 0 points
Attraction:
    linear   : max:(0.00140485 0 0) avg:(1.20867e-05 -1.38867e-06 0.000115524)
    feature  : max:(0 0.000977039 -0.00042648) avg:(4.16373e-07 3.44018e-09 -1.49647e-06)
Feature analysis : total master points :925690 of which attracted to :
    feature point   : 6
    feature edge    : 9996
    nearest surface : 0
    rest            : 915688

Smoothing displacement ...
Iteration 0
Iteration 10
Iteration 20
Iteration 30
Iteration 40
Iteration 50
Iteration 60
Iteration 70
Iteration 80
Iteration 90
Iteration 100
Iteration 110
Iteration 120
Iteration 130
Iteration 140
Iteration 150
Iteration 160
Iteration 170
Iteration 180
Iteration 190
Iteration 200
Iteration 210
Iteration 220
Iteration 230
Iteration 240
Iteration 250
Iteration 260
Iteration 270
Iteration 280
Iteration 290
Displacement smoothed in = 23.1 s


Moving mesh ...

Iteration 0
Moving mesh using displacement scaling : min:1  max:1
Checking faces in error :
    non-orthogonality > 65  degrees                        : 0
    faces with face pyramid volume < 1e-13                 : 0
    faces with face-decomposition tet quality < 1e-15      : 0
    faces with concavity > 80  degrees                     : 0
    faces with skewness > 4   (internal) or 20  (boundary) : 0
    faces with interpolation weights (0..1)  < 0.02        : 0
    faces with volume ratio of neighbour cells < 0.01      : 0
    faces with face twist < 0.02                           : 0
    faces on cells with determinant < 0.001                : 0
Successfully moved mesh
Moved mesh in = 1.59 s



Morph iteration 2
-----------------
Calculating patchDisplacement as distance to nearest surface point ...
    non-zone points : attract to nearest of all non-zone surfaces
    zone points     : attract to zone surface only

Wanted displacement : average:0.000426211 min:9.41753e-10 max:0.00129064
Calculated surface displacement in = 0.09 s


Detecting near surfaces ...
Overriding nearest with intersection of close gaps at 0 out of 936399 points.
Overriding displacement on features :
   implicit features    : false
   explicit features    : true
   multi-patch features : false

Detected 0 baffle edges out of 1856273 edges.
Baffle points     : 0 of which attracted to :
    feature point : 0
    feature edge  : 0
    rest          : 0

--> FOAM Warning : 
    From function Foam::treeBoundBox::treeBoundBox(const Foam::UList<Foam::Vector<double> >&)
    in file meshes/treeBoundBox/treeBoundBox.C at line 65
    cannot find bounding box for zero-sized pointField, returning zero
Initially selected 10194 mesh points out of 936399 for reverse attraction.
Selected 29811 mesh points out of 936399 for reverse attraction.
Stringing feature edges : changed 39 points
Stringing feature edges : changed 2 points
Stringing feature edges : changed 0 points
Attraction:
    linear   : max:(0.00129064 2.77556e-17 0) avg:(1.08442e-05 -1.24478e-06 0.000103835)
    feature  : max:(0 0.000969622 -0.000412019) avg:(3.98095e-07 5.9209e-09 -1.48312e-06)
Feature analysis : total master points :925690 of which attracted to :
    feature point   : 6
    feature edge    : 9994
    nearest surface : 0
    rest            : 915690

Smoothing displacement ...
Iteration 0
Iteration 10
Iteration 20
Iteration 30
Iteration 40
Iteration 50
Iteration 60
Iteration 70
Iteration 80
Iteration 90
Iteration 100
Iteration 110
Iteration 120
Iteration 130
Iteration 140
Iteration 150
Iteration 160
Iteration 170
Iteration 180
Iteration 190
Iteration 200
Iteration 210
Iteration 220
Iteration 230
Iteration 240
Iteration 250
Iteration 260
Iteration 270
Iteration 280
Iteration 290
Displacement smoothed in = 23.05 s


Moving mesh ...

Iteration 0
Moving mesh using displacement scaling : min:1  max:1
Checking faces in error :
    non-orthogonality > 65  degrees                        : 0
    faces with face pyramid volume < 1e-13                 : 0
    faces with face-decomposition tet quality < 1e-15      : 0
    faces with concavity > 80  degrees                     : 0
    faces with skewness > 4   (internal) or 20  (boundary) : 0
    faces with interpolation weights (0..1)  < 0.02        : 0
    faces with volume ratio of neighbour cells < 0.01      : 0
    faces with face twist < 0.02                           : 0
    faces on cells with determinant < 0.001                : 0
Successfully moved mesh
Moved mesh in = 1.54 s



Morph iteration 3
-----------------
Calculating patchDisplacement as distance to nearest surface point ...
    non-zone points : attract to nearest of all non-zone surfaces
    zone points     : attract to zone surface only

Wanted displacement : average:0.000366224 min:9.41753e-10 max:0.00115604
Calculated surface displacement in = 0.09 s


Detecting near surfaces ...
Overriding nearest with intersection of close gaps at 0 out of 936399 points.
Overriding displacement on features :
   implicit features    : false
   explicit features    : true
   multi-patch features : false

Detected 0 baffle edges out of 1856273 edges.
Baffle points     : 0 of which attracted to :
    feature point : 0
    feature edge  : 0
    rest          : 0

--> FOAM Warning : 
    From function Foam::treeBoundBox::treeBoundBox(const Foam::UList<Foam::Vector<double> >&)
    in file meshes/treeBoundBox/treeBoundBox.C at line 65
    cannot find bounding box for zero-sized pointField, returning zero
Initially selected 10278 mesh points out of 936399 for reverse attraction.
Selected 29817 mesh points out of 936399 for reverse attraction.
Stringing feature edges : changed 40 points
Stringing feature edges : changed 2 points
Stringing feature edges : changed 0 points
Attraction:
    linear   : max:(0.00115604 2.77556e-17 0) avg:(9.17008e-06 -1.05107e-06 8.80945e-05)
    feature  : max:(0 0.000959673 -0.000384344) avg:(3.71015e-07 9.18185e-09 -1.45127e-06)
Feature analysis : total master points :925690 of which attracted to :
    feature point   : 6
    feature edge    : 9992
    nearest surface : 0
    rest            : 915692

Smoothing displacement ...
Iteration 0
Iteration 10
Iteration 20
Iteration 30
Iteration 40
Iteration 50
Iteration 60
Iteration 70
Iteration 80
Iteration 90
Iteration 100
Iteration 110
Iteration 120
Iteration 130
Iteration 140
Iteration 150
Iteration 160
Iteration 170
Iteration 180
Iteration 190
Iteration 200
Iteration 210
Iteration 220
Iteration 230
Iteration 240
Iteration 250
Iteration 260
Iteration 270
Iteration 280
Iteration 290
Displacement smoothed in = 23.15 s


Moving mesh ...

Iteration 0
Moving mesh using displacement scaling : min:1  max:1
Checking faces in error :
    non-orthogonality > 65  degrees                        : 0
    faces with face pyramid volume < 1e-13                 : 0
    faces with face-decomposition tet quality < 1e-15      : 0
    faces with concavity > 80  degrees                     : 0
    faces with skewness > 4   (internal) or 20  (boundary) : 0
    faces with interpolation weights (0..1)  < 0.02        : 0
    faces with volume ratio of neighbour cells < 0.01      : 0
    faces with face twist < 0.02                           : 0
    faces on cells with determinant < 0.001                : 0
Successfully moved mesh
Moved mesh in = 1.96 s



Morph iteration 4
-----------------
Calculating patchDisplacement as distance to nearest surface point ...
    non-zone points : attract to nearest of all non-zone surfaces
    zone points     : attract to zone surface only

Wanted displacement : average:0.000297581 min:9.41753e-10 max:0.000994041
Calculated surface displacement in = 0.09 s


Detecting near surfaces ...
Overriding nearest with intersection of close gaps at 0 out of 936399 points.
Overriding displacement on features :
   implicit features    : false
   explicit features    : true
   multi-patch features : false

Detected 0 baffle edges out of 1856273 edges.
Baffle points     : 0 of which attracted to :
    feature point : 0
    feature edge  : 0
    rest          : 0

--> FOAM Warning : 
    From function Foam::treeBoundBox::treeBoundBox(const Foam::UList<Foam::Vector<double> >&)
    in file meshes/treeBoundBox/treeBoundBox.C at line 65
    cannot find bounding box for zero-sized pointField, returning zero
Initially selected 10262 mesh points out of 936399 for reverse attraction.
Selected 29810 mesh points out of 936399 for reverse attraction.
Stringing feature edges : changed 40 points
Stringing feature edges : changed 2 points
Stringing feature edges : changed 0 points
Attraction:
    linear   : max:(0.000994041 0 0) avg:(7.27901e-06 -8.43193e-07 7.0315e-05)
    feature  : max:(0 0.000948753 -0.000340974) avg:(3.34411e-07 7.60365e-09 -1.40252e-06)
Feature analysis : total master points :925690 of which attracted to :
    feature point   : 6
    feature edge    : 9980
    nearest surface : 0
    rest            : 915704

Smoothing displacement ...
Iteration 0
Iteration 10
Iteration 20
Iteration 30
Iteration 40
Iteration 50
Iteration 60
Iteration 70
Iteration 80
Iteration 90
Iteration 100
Iteration 110
Iteration 120
Iteration 130
Iteration 140
Iteration 150
Iteration 160
Iteration 170
Iteration 180
Iteration 190
Iteration 200
Iteration 210
Iteration 220
Iteration 230
Iteration 240
Iteration 250
Iteration 260
Iteration 270
Iteration 280
Iteration 290
Displacement smoothed in = 23.15 s


Moving mesh ...

Iteration 0
Moving mesh using displacement scaling : min:1  max:1
Checking faces in error :
    non-orthogonality > 65  degrees                        : 0
    faces with face pyramid volume < 1e-13                 : 0
    faces with face-decomposition tet quality < 1e-15      : 0
    faces with concavity > 80  degrees                     : 0
    faces with skewness > 4   (internal) or 20  (boundary) : 0
    faces with interpolation weights (0..1)  < 0.02        : 0
    faces with volume ratio of neighbour cells < 0.01      : 0
    faces with face twist < 0.02                           : 0
    faces on cells with determinant < 0.001                : 0
Successfully moved mesh
Moved mesh in = 1.7 s



Morph iteration 5
-----------------
Calculating patchDisplacement as distance to nearest surface point ...
    non-zone points : attract to nearest of all non-zone surfaces
    zone points     : attract to zone surface only

Wanted displacement : average:0.000228006 min:9.41753e-10 max:0.000818268
Calculated surface displacement in = 0.09 s


Detecting near surfaces ...
Overriding nearest with intersection of close gaps at 0 out of 936399 points.
Overriding displacement on features :
   implicit features    : false
   explicit features    : true
   multi-patch features : false

Detected 0 baffle edges out of 1856273 edges.
Baffle points     : 0 of which attracted to :
    feature point : 0
    feature edge  : 0
    rest          : 0

--> FOAM Warning : 
    From function Foam::treeBoundBox::treeBoundBox(const Foam::UList<Foam::Vector<double> >&)
    in file meshes/treeBoundBox/treeBoundBox.C at line 65
    cannot find bounding box for zero-sized pointField, returning zero
Initially selected 10220 mesh points out of 936399 for reverse attraction.
Selected 29774 mesh points out of 936399 for reverse attraction.
Stringing feature edges : changed 35 points
Stringing feature edges : changed 1 points
Stringing feature edges : changed 0 points
Attraction:
    linear   : max:(0.000818268 0 0) avg:(5.39637e-06 -6.33997e-07 5.26108e-05)
    feature  : max:(0.000361101 -8.39948e-05 -0.000770847) avg:(2.92862e-07 5.25515e-09 -1.33033e-06)
Feature analysis : total master points :925690 of which attracted to :
    feature point   : 6
    feature edge    : 9957
    nearest surface : 0
    rest            : 915727

Smoothing displacement ...
Iteration 0
Iteration 10
Iteration 20
Iteration 30
Iteration 40
Iteration 50
Iteration 60
Iteration 70
Iteration 80
Iteration 90
Iteration 100
Iteration 110
Iteration 120
Iteration 130
Iteration 140
Iteration 150
Iteration 160
Iteration 170
Iteration 180
Iteration 190
Iteration 200
Iteration 210
Iteration 220
Iteration 230
Iteration 240
Iteration 250
Iteration 260
Iteration 270
Iteration 280
Iteration 290
Displacement smoothed in = 23.05 s


Moving mesh ...

Iteration 0
Moving mesh using displacement scaling : min:1  max:1
Checking faces in error :
    non-orthogonality > 65  degrees                        : 0
    faces with face pyramid volume < 1e-13                 : 0
    faces with face-decomposition tet quality < 1e-15      : 0
    faces with concavity > 80  degrees                     : 0
    faces with skewness > 4   (internal) or 20  (boundary) : 0
    faces with interpolation weights (0..1)  < 0.02        : 0
    faces with volume ratio of neighbour cells < 0.01      : 0
    faces with face twist < 0.02                           : 0
    faces on cells with determinant < 0.001                : 0
Successfully moved mesh
Moved mesh in = 1.7 s



Morph iteration 6
-----------------
Calculating patchDisplacement as distance to nearest surface point ...
    non-zone points : attract to nearest of all non-zone surfaces
    zone points     : attract to zone surface only

Wanted displacement : average:0.000164242 min:9.41753e-10 max:0.000643281
Calculated surface displacement in = 0.09 s


Detecting near surfaces ...
Overriding nearest with intersection of close gaps at 0 out of 936399 points.
Overriding displacement on features :
   implicit features    : false
   explicit features    : true
   multi-patch features : false

Detected 0 baffle edges out of 1856273 edges.
Baffle points     : 0 of which attracted to :
    feature point : 0
    feature edge  : 0
    rest          : 0

--> FOAM Warning : 
    From function Foam::treeBoundBox::treeBoundBox(const Foam::UList<Foam::Vector<double> >&)
    in file meshes/treeBoundBox/treeBoundBox.C at line 65
    cannot find bounding box for zero-sized pointField, returning zero
Initially selected 10151 mesh points out of 936399 for reverse attraction.
Selected 29727 mesh points out of 936399 for reverse attraction.
Stringing feature edges : changed 34 points
Stringing feature edges : changed 0 points
Attraction:
    linear   : max:(0.000643281 0 0) avg:(3.71437e-06 -4.44355e-07 3.67641e-05)
    feature  : max:(-0.000259409 8.89993e-05 0.000742538) avg:(2.5157e-07 3.35208e-09 -1.23661e-06)
Feature analysis : total master points :925690 of which attracted to :
    feature point   : 6
    feature edge    : 9916
    nearest surface : 0
    rest            : 915768

Smoothing displacement ...
Iteration 0
Iteration 10
Iteration 20
Iteration 30
Iteration 40
Iteration 50
Iteration 60
Iteration 70
Iteration 80
Iteration 90
Iteration 100
Iteration 110
Iteration 120
Iteration 130
Iteration 140
Iteration 150
Iteration 160
Iteration 170
Iteration 180
Iteration 190
Iteration 200
Iteration 210
Iteration 220
Iteration 230
Iteration 240
Iteration 250
Iteration 260
Iteration 270
Iteration 280
Iteration 290
Displacement smoothed in = 23.05 s


Moving mesh ...

Iteration 0
Moving mesh using displacement scaling : min:1  max:1
Checking faces in error :
    non-orthogonality > 65  degrees                        : 0
    faces with face pyramid volume < 1e-13                 : 0
    faces with face-decomposition tet quality < 1e-15      : 0
    faces with concavity > 80  degrees                     : 0
    faces with skewness > 4   (internal) or 20  (boundary) : 0
    faces with interpolation weights (0..1)  < 0.02        : 0
    faces with volume ratio of neighbour cells < 0.01      : 0
    faces with face twist < 0.02                           : 0
    faces on cells with determinant < 0.001                : 0
Successfully moved mesh
Moved mesh in = 1.54 s



Morph iteration 7
-----------------
Calculating patchDisplacement as distance to nearest surface point ...
    non-zone points : attract to nearest of all non-zone surfaces
    zone points     : attract to zone surface only

Wanted displacement : average:0.000110825 min:5.51487e-11 max:0.000493698
Calculated surface displacement in = 0.1 s


Detecting near surfaces ...
Overriding nearest with intersection of close gaps at 0 out of 936399 points.
Overriding displacement on features :
   implicit features    : false
   explicit features    : true
   multi-patch features : false

Detected 0 baffle edges out of 1856273 edges.
Baffle points     : 0 of which attracted to :
    feature point : 0
    feature edge  : 0
    rest          : 0

--> FOAM Warning : 
    From function Foam::treeBoundBox::treeBoundBox(const Foam::UList<Foam::Vector<double> >&)
    in file meshes/treeBoundBox/treeBoundBox.C at line 65
    cannot find bounding box for zero-sized pointField, returning zero
Initially selected 10056 mesh points out of 936399 for reverse attraction.
Selected 29608 mesh points out of 936399 for reverse attraction.
Stringing feature edges : changed 32 points
Stringing feature edges : changed 0 points
Attraction:
    linear   : max:(0.000493698 0 0) avg:(2.35377e-06 -2.88585e-07 2.39127e-05)
    feature  : max:(-0.000154615 5.30459e-05 0.000747761) avg:(2.06582e-07 2.21364e-09 -1.11717e-06)
Feature analysis : total master points :925690 of which attracted to :
    feature point   : 6
    feature edge    : 9871
    nearest surface : 0
    rest            : 915813

Smoothing displacement ...
Iteration 0
Iteration 10
Iteration 20
Iteration 30
Iteration 40
Iteration 50
Iteration 60
Iteration 70
Iteration 80
Iteration 90
Iteration 100
Iteration 110
Iteration 120
Iteration 130
Iteration 140
Iteration 150
Iteration 160
Iteration 170
Iteration 180
Iteration 190
Iteration 200
Iteration 210
Iteration 220
Iteration 230
Iteration 240
Iteration 250
Iteration 260
Iteration 270
Iteration 280
Iteration 290
Displacement smoothed in = 23.07 s


Moving mesh ...

Iteration 0
Moving mesh using displacement scaling : min:1  max:1
Checking faces in error :
    non-orthogonality > 65  degrees                        : 0
    faces with face pyramid volume < 1e-13                 : 0
    faces with face-decomposition tet quality < 1e-15      : 0
    faces with concavity > 80  degrees                     : 0
    faces with skewness > 4   (internal) or 20  (boundary) : 0
    faces with interpolation weights (0..1)  < 0.02        : 0
    faces with volume ratio of neighbour cells < 0.01      : 0
    faces with face twist < 0.02                           : 0
    faces on cells with determinant < 0.001                : 0
Successfully moved mesh
Moved mesh in = 1.6 s



Morph iteration 8
-----------------
Calculating patchDisplacement as distance to nearest surface point ...
    non-zone points : attract to nearest of all non-zone surfaces
    zone points     : attract to zone surface only

Wanted displacement : average:6.99441e-05 min:4.63918e-10 max:0.000381983
Calculated surface displacement in = 0.1 s


Detecting near surfaces ...
Overriding nearest with intersection of close gaps at 0 out of 936399 points.
Overriding displacement on features :
   implicit features    : false
   explicit features    : true
   multi-patch features : false

Detected 0 baffle edges out of 1856273 edges.
Baffle points     : 0 of which attracted to :
    feature point : 0
    feature edge  : 0
    rest          : 0

--> FOAM Warning : 
    From function Foam::treeBoundBox::treeBoundBox(const Foam::UList<Foam::Vector<double> >&)
    in file meshes/treeBoundBox/treeBoundBox.C at line 65
    cannot find bounding box for zero-sized pointField, returning zero
Initially selected 10008 mesh points out of 936399 for reverse attraction.
Selected 29546 mesh points out of 936399 for reverse attraction.
Stringing feature edges : changed 26 points
Stringing feature edges : changed 0 points
Attraction:
    linear   : max:(-0.000381894 8.27234e-06 0) avg:(1.35822e-06 -1.72402e-07 1.44466e-05)
    feature  : max:(5.85796e-05 2.77556e-17 -0.000629355) avg:(1.65515e-07 1.34125e-09 -9.53321e-07)
Feature analysis : total master points :925690 of which attracted to :
    feature point   : 4
    feature edge    : 9853
    nearest surface : 0
    rest            : 915833

Smoothing displacement ...
Iteration 0
Iteration 10
Iteration 20
Iteration 30
Iteration 40
Iteration 50
Iteration 60
Iteration 70
Iteration 80
Iteration 90
Iteration 100
Iteration 110
Iteration 120
Iteration 130
Iteration 140
Iteration 150
Iteration 160
Iteration 170
Iteration 180
Iteration 190
Iteration 200
Iteration 210
Iteration 220
Iteration 230
Iteration 240
Iteration 250
Iteration 260
Iteration 270
Iteration 280
Iteration 290
Displacement smoothed in = 23.23 s


Moving mesh ...

Iteration 0
Moving mesh using displacement scaling : min:1  max:1
Checking faces in error :
    non-orthogonality > 65  degrees                        : 0
    faces with face pyramid volume < 1e-13                 : 0
    faces with face-decomposition tet quality < 1e-15      : 0
    faces with concavity > 80  degrees                     : 0
    faces with skewness > 4   (internal) or 20  (boundary) : 0
    faces with interpolation weights (0..1)  < 0.02        : 0
    faces with volume ratio of neighbour cells < 0.01      : 0
    faces with face twist < 0.02                           : 0
    faces on cells with determinant < 0.001                : 0
Successfully moved mesh
Moved mesh in = 1.57 s



Morph iteration 9
-----------------
Calculating patchDisplacement as distance to nearest surface point ...
    non-zone points : attract to nearest of all non-zone surfaces
    zone points     : attract to zone surface only

Wanted displacement : average:4.17873e-05 min:9.41753e-10 max:0.000290897
Calculated surface displacement in = 0.09 s


Detecting near surfaces ...
Overriding nearest with intersection of close gaps at 0 out of 936399 points.
Overriding displacement on features :
   implicit features    : false
   explicit features    : true
   multi-patch features : false

Detected 0 baffle edges out of 1856273 edges.
Baffle points     : 0 of which attracted to :
    feature point : 0
    feature edge  : 0
    rest          : 0

--> FOAM Warning : 
    From function Foam::treeBoundBox::treeBoundBox(const Foam::UList<Foam::Vector<double> >&)
    in file meshes/treeBoundBox/treeBoundBox.C at line 65
    cannot find bounding box for zero-sized pointField, returning zero
Initially selected 10008 mesh points out of 936399 for reverse attraction.
Selected 29546 mesh points out of 936399 for reverse attraction.
Stringing feature edges : changed 25 points
Stringing feature edges : changed 0 points
Attraction:
    linear   : max:(5.07787e-06 -0.000201066 -0.000210162) avg:(6.99649e-07 -9.3932e-08 8.11541e-06)
    feature  : max:(4.0437e-05 -4.21939e-05 0.000523432) avg:(1.26616e-07 9.51542e-10 -7.60119e-07)
Feature analysis : total master points :925690 of which attracted to :
    feature point   : 4
    feature edge    : 9853
    nearest surface : 0
    rest            : 915833

Smoothing displacement ...
Iteration 0
Iteration 10
Iteration 20
Iteration 30
Iteration 40
Iteration 50
Iteration 60
Iteration 70
Iteration 80
Iteration 90
Iteration 100
Iteration 110
Iteration 120
Iteration 130
Iteration 140
Iteration 150
Iteration 160
Iteration 170
Iteration 180
Iteration 190
Iteration 200
Iteration 210
Iteration 220
Iteration 230
Iteration 240
Iteration 250
Iteration 260
Iteration 270
Iteration 280
Iteration 290
Displacement smoothed in = 22.97 s


Moving mesh ...

Iteration 0
Moving mesh using displacement scaling : min:1  max:1
Checking faces in error :
    non-orthogonality > 65  degrees                        : 0
    faces with face pyramid volume < 1e-13                 : 0
    faces with face-decomposition tet quality < 1e-15      : 0
    faces with concavity > 80  degrees                     : 0
    faces with skewness > 4   (internal) or 20  (boundary) : 0
    faces with interpolation weights (0..1)  < 0.02        : 0
    faces with volume ratio of neighbour cells < 0.01      : 0
    faces with face twist < 0.02                           : 0
    faces on cells with determinant < 0.001                : 0
Successfully moved mesh
Moved mesh in = 1.78 s



Morph iteration 10
-----------------
Calculating patchDisplacement as distance to nearest surface point ...
    non-zone points : attract to nearest of all non-zone surfaces
    zone points     : attract to zone surface only

Wanted displacement : average:2.39808e-05 min:2.26483e-11 max:0.000219848
Calculated surface displacement in = 0.09 s


Detecting near surfaces ...
Overriding nearest with intersection of close gaps at 2 out of 936399 points.
Overriding displacement on features :
   implicit features    : false
   explicit features    : true
   multi-patch features : false

Detected 0 baffle edges out of 1856273 edges.
Baffle points     : 0 of which attracted to :
    feature point : 0
    feature edge  : 0
    rest          : 0

--> FOAM Warning : 
    From function Foam::treeBoundBox::treeBoundBox(const Foam::UList<Foam::Vector<double> >&)
    in file meshes/treeBoundBox/treeBoundBox.C at line 65
    cannot find bounding box for zero-sized pointField, returning zero
Initially selected 10008 mesh points out of 936399 for reverse attraction.
Selected 29546 mesh points out of 936399 for reverse attraction.
Stringing feature edges : changed 24 points
Stringing feature edges : changed 0 points
Attraction:
    linear   : max:(3.83763e-06 -0.000151957 -0.000158831) avg:(3.11397e-07 -4.59233e-08 4.27209e-06)
    feature  : max:(-2.29242e-05 1.67678e-05 0.000458928) avg:(9.19986e-08 3.21906e-10 -5.69476e-07)
Feature analysis : total master points :925690 of which attracted to :
    feature point   : 4
    feature edge    : 9853
    nearest surface : 0
    rest            : 915833

Smoothing displacement ...
Iteration 0
Iteration 10
Iteration 20
Iteration 30
Iteration 40
Iteration 50
Iteration 60
Iteration 70
Iteration 80
Iteration 90
Iteration 100
Iteration 110
Iteration 120
Iteration 130
Iteration 140
Iteration 150
Iteration 160
Iteration 170
Iteration 180
Iteration 190
Iteration 200
Iteration 210
Iteration 220
Iteration 230
Iteration 240
Iteration 250
Iteration 260
Iteration 270
Iteration 280
Iteration 290
Displacement smoothed in = 23.04 s


Moving mesh ...

Iteration 0
Moving mesh using displacement scaling : min:1  max:1
Checking faces in error :
    non-orthogonality > 65  degrees                        : 0
    faces with face pyramid volume < 1e-13                 : 0
    faces with face-decomposition tet quality < 1e-15      : 0
    faces with concavity > 80  degrees                     : 0
    faces with skewness > 4   (internal) or 20  (boundary) : 0
    faces with interpolation weights (0..1)  < 0.02        : 0
    faces with volume ratio of neighbour cells < 0.01      : 0
    faces with face twist < 0.02                           : 0
    faces on cells with determinant < 0.001                : 0
Successfully moved mesh
Moved mesh in = 1.58 s



Morph iteration 11
-----------------
Calculating patchDisplacement as distance to nearest surface point ...
    non-zone points : attract to nearest of all non-zone surfaces
    zone points     : attract to zone surface only

Wanted displacement : average:1.31586e-05 min:3.62518e-10 max:0.000154174
Calculated surface displacement in = 0.09 s


Detecting near surfaces ...
Overriding nearest with intersection of close gaps at 22 out of 936399 points.
Overriding displacement on features :
   implicit features    : false
   explicit features    : true
   multi-patch features : false

Detected 0 baffle edges out of 1856273 edges.
Baffle points     : 0 of which attracted to :
    feature point : 0
    feature edge  : 0
    rest          : 0

--> FOAM Warning : 
    From function Foam::treeBoundBox::treeBoundBox(const Foam::UList<Foam::Vector<double> >&)
    in file meshes/treeBoundBox/treeBoundBox.C at line 65
    cannot find bounding box for zero-sized pointField, returning zero
Initially selected 10007 mesh points out of 936399 for reverse attraction.
Selected 29543 mesh points out of 936399 for reverse attraction.
Stringing feature edges : changed 24 points
Stringing feature edges : changed 0 points
Attraction:
    linear   : max:(2.69125e-06 -0.000106564 -0.000111385) avg:(1.1103e-07 -1.99703e-08 2.1473e-06)
    feature  : max:(-1.37832e-05 1.00816e-05 0.000389515) avg:(6.2739e-08 1.23077e-10 -3.96342e-07)
Feature analysis : total master points :925690 of which attracted to :
    feature point   : 4
    feature edge    : 9852
    nearest surface : 0
    rest            : 915834

Smoothing displacement ...
Iteration 0
Iteration 10
Iteration 20
Iteration 30
Iteration 40
Iteration 50
Iteration 60
Iteration 70
Iteration 80
Iteration 90
Iteration 100
Iteration 110
Iteration 120
Iteration 130
Iteration 140
Iteration 150
Iteration 160
Iteration 170
Iteration 180
Iteration 190
Iteration 200
Iteration 210
Iteration 220
Iteration 230
Iteration 240
Iteration 250
Iteration 260
Iteration 270
Iteration 280
Iteration 290
Displacement smoothed in = 22.97 s


Moving mesh ...

Iteration 0
Moving mesh using displacement scaling : min:1  max:1
Checking faces in error :
    non-orthogonality > 65  degrees                        : 0
    faces with face pyramid volume < 1e-13                 : 0
    faces with face-decomposition tet quality < 1e-15      : 2
    faces with concavity > 80  degrees                     : 0
    faces with skewness > 4   (internal) or 20  (boundary) : 0
    faces with interpolation weights (0..1)  < 0.02        : 0
    faces with volume ratio of neighbour cells < 0.01      : 0
    faces with face twist < 0.02                           : 0
    faces on cells with determinant < 0.001                : 0

Iteration 1
Moving mesh using displacement scaling : min:0.75  max:1
Checking faces in error :
    non-orthogonality > 65  degrees                        : 0
    faces with face pyramid volume < 1e-13                 : 0
    faces with face-decomposition tet quality < 1e-15      : 2
    faces with concavity > 80  degrees                     : 0
    faces with skewness > 4   (internal) or 20  (boundary) : 0
    faces with interpolation weights (0..1)  < 0.02        : 0
    faces with volume ratio of neighbour cells < 0.01      : 0
    faces with face twist < 0.02                           : 0
    faces on cells with determinant < 0.001                : 0

Iteration 2
Moving mesh using displacement scaling : min:0.5625  max:1
Checking faces in error :
    non-orthogonality > 65  degrees                        : 0
    faces with face pyramid volume < 1e-13                 : 0
    faces with face-decomposition tet quality < 1e-15      : 2
    faces with concavity > 80  degrees                     : 0
    faces with skewness > 4   (internal) or 20  (boundary) : 0
    faces with interpolation weights (0..1)  < 0.02        : 0
    faces with volume ratio of neighbour cells < 0.01      : 0
    faces with face twist < 0.02                           : 0
    faces on cells with determinant < 0.001                : 0

Iteration 3
Moving mesh using displacement scaling : min:0.421875  max:1
Checking faces in error :
    non-orthogonality > 65  degrees                        : 0
    faces with face pyramid volume < 1e-13                 : 0
    faces with face-decomposition tet quality < 1e-15      : 0
    faces with concavity > 80  degrees                     : 0
    faces with skewness > 4   (internal) or 20  (boundary) : 0
    faces with interpolation weights (0..1)  < 0.02        : 0
    faces with volume ratio of neighbour cells < 0.01      : 0
    faces with face twist < 0.02                           : 0
    faces on cells with determinant < 0.001                : 0
Successfully moved mesh
Moved mesh in = 3.97 s



Morph iteration 12
-----------------
Calculating patchDisplacement as distance to nearest surface point ...
    non-zone points : attract to nearest of all non-zone surfaces
    zone points     : attract to zone surface only

Wanted displacement : average:7.14778e-06 min:7.51166e-11 max:0.000117798
Calculated surface displacement in = 0.09 s


Detecting near surfaces ...
Overriding nearest with intersection of close gaps at 29 out of 936399 points.
Overriding displacement on features :
   implicit features    : false
   explicit features    : true
   multi-patch features : false

Detected 0 baffle edges out of 1856273 edges.
Baffle points     : 0 of which attracted to :
    feature point : 0
    feature edge  : 0
    rest          : 0

--> FOAM Warning : 
    From function Foam::treeBoundBox::treeBoundBox(const Foam::UList<Foam::Vector<double> >&)
    in file meshes/treeBoundBox/treeBoundBox.C at line 65
    cannot find bounding box for zero-sized pointField, returning zero
Initially selected 10008 mesh points out of 936399 for reverse attraction.
Selected 29548 mesh points out of 936399 for reverse attraction.
Stringing feature edges : changed 20 points
Stringing feature edges : changed 0 points
Attraction:
    linear   : max:(-2.1684e-19 0 0.000117798) avg:(2.45091e-08 -7.61223e-09 1.06178e-06)
    feature  : max:(-0.000181536 -0.000535201 0.000510855) avg:(3.90117e-08 -5.35742e-10 -2.52384e-07)
Feature analysis : total master points :925690 of which attracted to :
    feature point   : 4
    feature edge    : 9853
    nearest surface : 0
    rest            : 915833

Smoothing displacement ...
Iteration 0
Iteration 10
Iteration 20
Iteration 30
Iteration 40
Iteration 50
Iteration 60
Iteration 70
Iteration 80
Iteration 90
Iteration 100
Iteration 110
Iteration 120
Iteration 130
Iteration 140
Iteration 150
Iteration 160
Iteration 170
Iteration 180
Iteration 190
Iteration 200
Iteration 210
Iteration 220
Iteration 230
Iteration 240
Iteration 250
Iteration 260
Iteration 270
Iteration 280
Iteration 290
Displacement smoothed in = 22.92 s


Moving mesh ...

Iteration 0
Moving mesh using displacement scaling : min:1  max:1
Checking faces in error :
    non-orthogonality > 65  degrees                        : 0
    faces with face pyramid volume < 1e-13                 : 0
    faces with face-decomposition tet quality < 1e-15      : 3
    faces with concavity > 80  degrees                     : 0
    faces with skewness > 4   (internal) or 20  (boundary) : 0
    faces with interpolation weights (0..1)  < 0.02        : 0
    faces with volume ratio of neighbour cells < 0.01      : 0
    faces with face twist < 0.02                           : 0
    faces on cells with determinant < 0.001                : 0

Iteration 1
Moving mesh using displacement scaling : min:0.75  max:1
Checking faces in error :
    non-orthogonality > 65  degrees                        : 0
    faces with face pyramid volume < 1e-13                 : 0
    faces with face-decomposition tet quality < 1e-15      : 3
    faces with concavity > 80  degrees                     : 0
    faces with skewness > 4   (internal) or 20  (boundary) : 0
    faces with interpolation weights (0..1)  < 0.02        : 0
    faces with volume ratio of neighbour cells < 0.01      : 0
    faces with face twist < 0.02                           : 0
    faces on cells with determinant < 0.001                : 0

Iteration 2
Moving mesh using displacement scaling : min:0.5625  max:1
Checking faces in error :
    non-orthogonality > 65  degrees                        : 0
    faces with face pyramid volume < 1e-13                 : 0
    faces with face-decomposition tet quality < 1e-15      : 3
    faces with concavity > 80  degrees                     : 0
    faces with skewness > 4   (internal) or 20  (boundary) : 0
    faces with interpolation weights (0..1)  < 0.02        : 0
    faces with volume ratio of neighbour cells < 0.01      : 0
    faces with face twist < 0.02                           : 0
    faces on cells with determinant < 0.001                : 0

Iteration 3
Moving mesh using displacement scaling : min:0.421875  max:1
Checking faces in error :
    non-orthogonality > 65  degrees                        : 0
    faces with face pyramid volume < 1e-13                 : 0
    faces with face-decomposition tet quality < 1e-15      : 3
    faces with concavity > 80  degrees                     : 0
    faces with skewness > 4   (internal) or 20  (boundary) : 0
    faces with interpolation weights (0..1)  < 0.02        : 0
    faces with volume ratio of neighbour cells < 0.01      : 0
    faces with face twist < 0.02                           : 0
    faces on cells with determinant < 0.001                : 0

Iteration 4
Moving mesh using displacement scaling : min:0.316406  max:1
Checking faces in error :
    non-orthogonality > 65  degrees                        : 0
    faces with face pyramid volume < 1e-13                 : 0
    faces with face-decomposition tet quality < 1e-15      : 2
    faces with concavity > 80  degrees                     : 0
    faces with skewness > 4   (internal) or 20  (boundary) : 0
    faces with interpolation weights (0..1)  < 0.02        : 0
    faces with volume ratio of neighbour cells < 0.01      : 0
    faces with face twist < 0.02                           : 0
    faces on cells with determinant < 0.001                : 0

Iteration 5
Displacement scaling for error reduction set to 0.
Moving mesh using displacement scaling : min:0.237305  max:1
Checking faces in error :
    non-orthogonality > 65  degrees                        : 0
    faces with face pyramid volume < 1e-13                 : 0
    faces with face-decomposition tet quality < 1e-15      : 2
    faces with concavity > 80  degrees                     : 0
    faces with skewness > 4   (internal) or 20  (boundary) : 0
    faces with interpolation weights (0..1)  < 0.02        : 0
    faces with volume ratio of neighbour cells < 0.01      : 0
    faces with face twist < 0.02                           : 0
    faces on cells with determinant < 0.001                : 0

Iteration 6
Moving mesh using displacement scaling : min:0  max:1
Checking faces in error :
    non-orthogonality > 65  degrees                        : 0
    faces with face pyramid volume < 1e-13                 : 0
    faces with face-decomposition tet quality < 1e-15      : 0
    faces with concavity > 80  degrees                     : 0
    faces with skewness > 4   (internal) or 20  (boundary) : 0
    faces with interpolation weights (0..1)  < 0.02        : 0
    faces with volume ratio of neighbour cells < 0.01      : 0
    faces with face twist < 0.02                           : 0
    faces on cells with determinant < 0.001                : 0
Successfully moved mesh
Moved mesh in = 6.47 s



Morph iteration 13
-----------------
Calculating patchDisplacement as distance to nearest surface point ...
    non-zone points : attract to nearest of all non-zone surfaces
    zone points     : attract to zone surface only

Wanted displacement : average:3.94471e-06 min:2.30042e-11 max:0.000105202
Calculated surface displacement in = 0.09 s


Detecting near surfaces ...
Overriding nearest with intersection of close gaps at 31 out of 936399 points.
Overriding displacement on features :
   implicit features    : false
   explicit features    : true
   multi-patch features : false

Detected 0 baffle edges out of 1856273 edges.
Baffle points     : 0 of which attracted to :
    feature point : 0
    feature edge  : 0
    rest          : 0

--> FOAM Warning : 
    From function Foam::treeBoundBox::treeBoundBox(const Foam::UList<Foam::Vector<double> >&)
    in file meshes/treeBoundBox/treeBoundBox.C at line 65
    cannot find bounding box for zero-sized pointField, returning zero
Initially selected 10005 mesh points out of 936399 for reverse attraction.
Selected 29541 mesh points out of 936399 for reverse attraction.
Stringing feature edges : changed 20 points
Stringing feature edges : changed 0 points
Attraction:
    linear   : max:(0 0 0.000105202) avg:(-3.25888e-09 -2.40936e-09 5.30147e-07)
    feature  : max:(-4.48677e-06 3.28183e-06 0.000251929) avg:(2.24095e-08 3.13365e-12 -1.4507e-07)
Feature analysis : total master points :925690 of which attracted to :
    feature point   : 4
    feature edge    : 9852
    nearest surface : 0
    rest            : 915834

Smoothing displacement ...
Iteration 0
Iteration 10
Iteration 20
Iteration 30
Iteration 40
Iteration 50
Iteration 60
Iteration 70
Iteration 80
Iteration 90
Iteration 100
Iteration 110
Iteration 120
Iteration 130
Iteration 140
Iteration 150
Iteration 160
Iteration 170
Iteration 180
Iteration 190
Iteration 200
Iteration 210
Iteration 220
Iteration 230
Iteration 240
Iteration 250
Iteration 260
Iteration 270
Iteration 280
Iteration 290
Displacement smoothed in = 23.21 s


Moving mesh ...

Iteration 0
Moving mesh using displacement scaling : min:1  max:1
Checking faces in error :
    non-orthogonality > 65  degrees                        : 0
    faces with face pyramid volume < 1e-13                 : 0
    faces with face-decomposition tet quality < 1e-15      : 3
    faces with concavity > 80  degrees                     : 0
    faces with skewness > 4   (internal) or 20  (boundary) : 0
    faces with interpolation weights (0..1)  < 0.02        : 0
    faces with volume ratio of neighbour cells < 0.01      : 0
    faces with face twist < 0.02                           : 0
    faces on cells with determinant < 0.001                : 0

Iteration 1
Moving mesh using displacement scaling : min:0.75  max:1
Checking faces in error :
    non-orthogonality > 65  degrees                        : 0
    faces with face pyramid volume < 1e-13                 : 0
    faces with face-decomposition tet quality < 1e-15      : 3
    faces with concavity > 80  degrees                     : 0
    faces with skewness > 4   (internal) or 20  (boundary) : 0
    faces with interpolation weights (0..1)  < 0.02        : 0
    faces with volume ratio of neighbour cells < 0.01      : 0
    faces with face twist < 0.02                           : 0
[...]
    faces with face twist < 0.02                           : 0
    faces on cells with determinant < 0.001                : 0

Iteration 4
Moving mesh using displacement scaling : min:0.316406  max:1
Checking faces in error :
    non-orthogonality > 65  degrees                        : 0
    faces with face pyramid volume < 1e-13                 : 0
    faces with face-decomposition tet quality < 1e-15      : 5
    faces with concavity > 80  degrees                     : 0
    faces with skewness > 4   (internal) or 20  (boundary) : 0
    faces with interpolation weights (0..1)  < 0.02        : 0
    faces with volume ratio of neighbour cells < 0.01      : 0
    faces with face twist < 0.02                           : 0
    faces on cells with determinant < 0.001                : 0

Iteration 5
Displacement scaling for error reduction set to 0.
Moving mesh using displacement scaling : min:0.237305  max:1
Checking faces in error :
    non-orthogonality > 65  degrees                        : 0
    faces with face pyramid volume < 1e-13                 : 0
    faces with face-decomposition tet quality < 1e-15      : 5
    faces with concavity > 80  degrees                     : 0
    faces with skewness > 4   (internal) or 20  (boundary) : 0
    faces with interpolation weights (0..1)  < 0.02        : 0
    faces with volume ratio of neighbour cells < 0.01      : 0
    faces with face twist < 0.02                           : 0
    faces on cells with determinant < 0.001                : 0

Iteration 6
Moving mesh using displacement scaling : min:0  max:1
Checking faces in error :
    non-orthogonality > 65  degrees                        : 0
    faces with face pyramid volume < 1e-13                 : 0
    faces with face-decomposition tet quality < 1e-15      : 0
    faces with concavity > 80  degrees                     : 0
    faces with skewness > 4   (internal) or 20  (boundary) : 0
    faces with interpolation weights (0..1)  < 0.02        : 0
    faces with volume ratio of neighbour cells < 0.01      : 0
    faces with face twist < 0.02                           : 0
    faces on cells with determinant < 0.001                : 0
Successfully moved mesh
Moved mesh in = 6.54 s



Morph iteration 18
-----------------
Calculating patchDisplacement as distance to nearest surface point ...
    non-zone points : attract to nearest of all non-zone surfaces
    zone points     : attract to zone surface only

Wanted displacement : average:4.00481e-08 min:6.56419e-14 max:5.50032e-05
Calculated surface displacement in = 0.08 s


Detecting near surfaces ...
Overriding nearest with intersection of close gaps at 0 out of 936399 points.
Overriding displacement on features :
   implicit features    : false
   explicit features    : true
   multi-patch features : false

Detected 0 baffle edges out of 1856273 edges.
Baffle points     : 0 of which attracted to :
    feature point : 0
    feature edge  : 0
    rest          : 0

--> FOAM Warning : 
    From function Foam::treeBoundBox::treeBoundBox(const Foam::UList<Foam::Vector<double> >&)
    in file meshes/treeBoundBox/treeBoundBox.C at line 65
    cannot find bounding box for zero-sized pointField, returning zero
Initially selected 10005 mesh points out of 936399 for reverse attraction.
Selected 29541 mesh points out of 936399 for reverse attraction.
Stringing feature edges : changed 10 points
Stringing feature edges : changed 0 points
Attraction:
    linear   : max:(4.69907e-05 5.09695e-10 2.85871e-05) avg:(-2.22068e-10 -3.56336e-12 5.28281e-09)
    feature  : max:(-3.54534e-05 -9.70173e-05 5.84025e-05) avg:(1.13e-10 5.20623e-13 -2.80702e-10)
Feature analysis : total master points :925690 of which attracted to :
    feature point   : 4
    feature edge    : 9852
    nearest surface : 0
    rest            : 915834

Smoothing displacement ...
Iteration 0
Iteration 10
Iteration 20
Iteration 30
Iteration 40
Iteration 50
Iteration 60
Iteration 70
Iteration 80
Iteration 90
Iteration 100
Iteration 110
Iteration 120
Iteration 130
Iteration 140
Iteration 150
Iteration 160
Iteration 170
Iteration 180
Iteration 190
Iteration 200
Iteration 210
Iteration 220
Iteration 230
Iteration 240
Iteration 250
Iteration 260
Iteration 270
Iteration 280
Iteration 290
Displacement smoothed in = 23.04 s


Moving mesh ...

Iteration 0
Moving mesh using displacement scaling : min:1  max:1
Checking faces in error :
    non-orthogonality > 65  degrees                        : 0
    faces with face pyramid volume < 1e-13                 : 0
    faces with face-decomposition tet quality < 1e-15      : 7
    faces with concavity > 80  degrees                     : 0
    faces with skewness > 4   (internal) or 20  (boundary) : 0
    faces with interpolation weights (0..1)  < 0.02        : 0
    faces with volume ratio of neighbour cells < 0.01      : 0
    faces with face twist < 0.02                           : 0
    faces on cells with determinant < 0.001                : 0

Iteration 1
Moving mesh using displacement scaling : min:0.75  max:1
Checking faces in error :
    non-orthogonality > 65  degrees                        : 0
    faces with face pyramid volume < 1e-13                 : 0
    faces with face-decomposition tet quality < 1e-15      : 7
    faces with concavity > 80  degrees                     : 0
    faces with skewness > 4   (internal) or 20  (boundary) : 0
    faces with interpolation weights (0..1)  < 0.02        : 0
    faces with volume ratio of neighbour cells < 0.01      : 0
    faces with face twist < 0.02                           : 0
    faces on cells with determinant < 0.001                : 0

Iteration 2
Moving mesh using displacement scaling : min:0.5625  max:1
Checking faces in error :
    non-orthogonality > 65  degrees                        : 0
    faces with face pyramid volume < 1e-13                 : 0
    faces with face-decomposition tet quality < 1e-15      : 7
    faces with concavity > 80  degrees                     : 0
    faces with skewness > 4   (internal) or 20  (boundary) : 0
    faces with interpolation weights (0..1)  < 0.02        : 0
    faces with volume ratio of neighbour cells < 0.01      : 0
    faces with face twist < 0.02                           : 0
    faces on cells with determinant < 0.001                : 0

Iteration 3
Moving mesh using displacement scaling : min:0.421875  max:1
Checking faces in error :
    non-orthogonality > 65  degrees                        : 0
    faces with face pyramid volume < 1e-13                 : 0
    faces with face-decomposition tet quality < 1e-15      : 7
    faces with concavity > 80  degrees                     : 0
    faces with skewness > 4   (internal) or 20  (boundary) : 0
    faces with interpolation weights (0..1)  < 0.02        : 0
    faces with volume ratio of neighbour cells < 0.01      : 0
    faces with face twist < 0.02                           : 0
    faces on cells with determinant < 0.001                : 0

Iteration 4
Moving mesh using displacement scaling : min:0.316406  max:1
Checking faces in error :
    non-orthogonality > 65  degrees                        : 0
    faces with face pyramid volume < 1e-13                 : 0
    faces with face-decomposition tet quality < 1e-15      : 7
    faces with concavity > 80  degrees                     : 0
    faces with skewness > 4   (internal) or 20  (boundary) : 0
    faces with interpolation weights (0..1)  < 0.02        : 0
    faces with volume ratio of neighbour cells < 0.01      : 0
    faces with face twist < 0.02                           : 0
    faces on cells with determinant < 0.001                : 0

Iteration 5
Displacement scaling for error reduction set to 0.
Moving mesh using displacement scaling : min:0.237305  max:1
Checking faces in error :
    non-orthogonality > 65  degrees                        : 0
    faces with face pyramid volume < 1e-13                 : 0
    faces with face-decomposition tet quality < 1e-15      : 7
    faces with concavity > 80  degrees                     : 0
    faces with skewness > 4   (internal) or 20  (boundary) : 0
    faces with interpolation weights (0..1)  < 0.02        : 0
    faces with volume ratio of neighbour cells < 0.01      : 0
    faces with face twist < 0.02                           : 0
    faces on cells with determinant < 0.001                : 0

Iteration 6
Moving mesh using displacement scaling : min:0  max:1
Checking faces in error :
    non-orthogonality > 65  degrees                        : 0
    faces with face pyramid volume < 1e-13                 : 0
    faces with face-decomposition tet quality < 1e-15      : 0
    faces with concavity > 80  degrees                     : 0
    faces with skewness > 4   (internal) or 20  (boundary) : 0
    faces with interpolation weights (0..1)  < 0.02        : 0
    faces with volume ratio of neighbour cells < 0.01      : 0
    faces with face twist < 0.02                           : 0
    faces on cells with determinant < 0.001                : 0
Successfully moved mesh
Moved mesh in = 6.71 s



Morph iteration 19
-----------------
Calculating patchDisplacement as distance to nearest surface point ...
    non-zone points : attract to nearest of all non-zone surfaces
    zone points     : attract to zone surface only

Wanted displacement : average:7.16181e-09 min:8.32667e-16 max:5.50032e-05
Calculated surface displacement in = 0.08 s


Detecting near surfaces ...
Overriding nearest with intersection of close gaps at 0 out of 936399 points.
Overriding displacement on features :
   implicit features    : false
   explicit features    : true
   multi-patch features : false

Detected 0 baffle edges out of 1856273 edges.
Baffle points     : 0 of which attracted to :
    feature point : 0
    feature edge  : 0
    rest          : 0

--> FOAM Warning : 
    From function Foam::treeBoundBox::treeBoundBox(const Foam::UList<Foam::Vector<double> >&)
    in file meshes/treeBoundBox/treeBoundBox.C at line 65
    cannot find bounding box for zero-sized pointField, returning zero
Initially selected 10005 mesh points out of 936399 for reverse attraction.
Selected 29541 mesh points out of 936399 for reverse attraction.
Stringing feature edges : changed 10 points
Stringing feature edges : changed 0 points
Attraction:
    linear   : max:(4.69907e-05 5.09695e-10 2.85871e-05) avg:(-1.50977e-10 -6.27785e-12 9.41199e-10)
    feature  : max:(-3.54534e-05 -9.70173e-05 5.84025e-05) avg:(3.54466e-11 5.93698e-13 1.45468e-10)
Feature analysis : total master points :925690 of which attracted to :
    feature point   : 4
    feature edge    : 9852
    nearest surface : 0
    rest            : 915834

Smoothing displacement ...
Iteration 0
Iteration 10
Iteration 20
Iteration 30
Iteration 40
Iteration 50
Iteration 60
Iteration 70
Iteration 80
Iteration 90
Iteration 100
Iteration 110
Iteration 120
Iteration 130
Iteration 140
Iteration 150
Iteration 160
Iteration 170
Iteration 180
Iteration 190
Iteration 200
Iteration 210
Iteration 220
Iteration 230
Iteration 240
Iteration 250
Iteration 260
Iteration 270
Iteration 280
Iteration 290
Displacement smoothed in = 22.26 s


Moving mesh ...

Iteration 0
Moving mesh using displacement scaling : min:1  max:1
Checking faces in error :
    non-orthogonality > 65  degrees                        : 0
    faces with face pyramid volume < 1e-13                 : 0
    faces with face-decomposition tet quality < 1e-15      : 7
    faces with concavity > 80  degrees                     : 2
    faces with skewness > 4   (internal) or 20  (boundary) : 0
    faces with interpolation weights (0..1)  < 0.02        : 0
    faces with volume ratio of neighbour cells < 0.01      : 0
    faces with face twist < 0.02                           : 0
    faces on cells with determinant < 0.001                : 0

Iteration 1
Moving mesh using displacement scaling : min:0.75  max:1
Checking faces in error :
    non-orthogonality > 65  degrees                        : 0
    faces with face pyramid volume < 1e-13                 : 0
    faces with face-decomposition tet quality < 1e-15      : 7
    faces with concavity > 80  degrees                     : 2
    faces with skewness > 4   (internal) or 20  (boundary) : 0
    faces with interpolation weights (0..1)  < 0.02        : 0
    faces with volume ratio of neighbour cells < 0.01      : 0
    faces with face twist < 0.02                           : 0
    faces on cells with determinant < 0.001                : 0

Iteration 2
Moving mesh using displacement scaling : min:0.5625  max:1
Checking faces in error :
    non-orthogonality > 65  degrees                        : 0
    faces with face pyramid volume < 1e-13                 : 0
    faces with face-decomposition tet quality < 1e-15      : 7
    faces with concavity > 80  degrees                     : 0
    faces with skewness > 4   (internal) or 20  (boundary) : 0
    faces with interpolation weights (0..1)  < 0.02        : 0
    faces with volume ratio of neighbour cells < 0.01      : 0
    faces with face twist < 0.02                           : 0
    faces on cells with determinant < 0.001                : 0

Iteration 3
Moving mesh using displacement scaling : min:0.421875  max:1
Checking faces in error :
    non-orthogonality > 65  degrees                        : 0
    faces with face pyramid volume < 1e-13                 : 0
    faces with face-decomposition tet quality < 1e-15      : 7
    faces with concavity > 80  degrees                     : 0
    faces with skewness > 4   (internal) or 20  (boundary) : 0
    faces with interpolation weights (0..1)  < 0.02        : 0
    faces with volume ratio of neighbour cells < 0.01      : 0
    faces with face twist < 0.02                           : 0
    faces on cells with determinant < 0.001                : 0

Iteration 4
Moving mesh using displacement scaling : min:0.316406  max:1
Checking faces in error :
    non-orthogonality > 65  degrees                        : 0
    faces with face pyramid volume < 1e-13                 : 0
    faces with face-decomposition tet quality < 1e-15      : 7
    faces with concavity > 80  degrees                     : 0
    faces with skewness > 4   (internal) or 20  (boundary) : 0
    faces with interpolation weights (0..1)  < 0.02        : 0
    faces with volume ratio of neighbour cells < 0.01      : 0
    faces with face twist < 0.02                           : 0
    faces on cells with determinant < 0.001                : 0

Iteration 5
Displacement scaling for error reduction set to 0.
Moving mesh using displacement scaling : min:0.237305  max:1
Checking faces in error :
    non-orthogonality > 65  degrees                        : 0
    faces with face pyramid volume < 1e-13                 : 0
    faces with face-decomposition tet quality < 1e-15      : 7
    faces with concavity > 80  degrees                     : 0
    faces with skewness > 4   (internal) or 20  (boundary) : 0
    faces with interpolation weights (0..1)  < 0.02        : 0
    faces with volume ratio of neighbour cells < 0.01      : 0
    faces with face twist < 0.02                           : 0
    faces on cells with determinant < 0.001                : 0

Iteration 6
Moving mesh using displacement scaling : min:0  max:1
Checking faces in error :
    non-orthogonality > 65  degrees                        : 0
    faces with face pyramid volume < 1e-13                 : 0
    faces with face-decomposition tet quality < 1e-15      : 0
    faces with concavity > 80  degrees                     : 0
    faces with skewness > 4   (internal) or 20  (boundary) : 0
    faces with interpolation weights (0..1)  < 0.02        : 0
    faces with volume ratio of neighbour cells < 0.01      : 0
    faces with face twist < 0.02                           : 0
    faces on cells with determinant < 0.001                : 0
Successfully moved mesh
Moved mesh in = 6.28 s


Repatching faces according to nearest surface ...
Repatched 0 faces in = 0.95 s


Edge intersection testing:
    Number of edges             : 40139244
    Number of edges to retest   : 10710817
    Number of intersected edges : 919892
Merging 33995 sets of faces.

--> FOAM Warning : 
    From function void Foam::HashTable<T, Key, Hash>::resize(Foam::label) [with T = int; Key = int; Hash = Foam::Hash<int>; Foam::label = int]
    in file /share/apps/OpenFOAM/OpenFOAM-v1812/src/OpenFOAM/lnInclude/HashTable.C at line 569
    HashTable contains 17 cannot resize(0)
Edge intersection testing:
    Number of edges             : 40103556
    Number of edges to retest   : 145092
    Number of intersected edges : 884204

Undo iteration 0
----------------
Checking faces in error :
    non-orthogonality > 65  degrees                        : 0
    faces with face pyramid volume < 1e-13                 : 0
    faces with face-decomposition tet quality < 1e-15      : 3
    faces with concavity > 80  degrees                     : 0
    faces with skewness > 4   (internal) or 20  (boundary) : 0
    faces with interpolation weights (0..1)  < 0.02        : 0
    faces with volume ratio of neighbour cells < 0.01      : 0
    faces with face twist < 0.02                           : 0
    faces on cells with determinant < 0.001                : 0
Masters that need to be restored:6
Edge intersection testing:
    Number of edges             : 40103563
    Number of edges to retest   : 41
    Number of intersected edges : 884211


Undo iteration 1
----------------
Checking faces in error :
    non-orthogonality > 65  degrees                        : 0
    faces with face pyramid volume < 1e-13                 : 0
    faces with face-decomposition tet quality < 1e-15      : 0
    faces with concavity > 80  degrees                     : 0
    faces with skewness > 4   (internal) or 20  (boundary) : 0
    faces with interpolation weights (0..1)  < 0.02        : 0
    faces with volume ratio of neighbour cells < 0.01      : 0
    faces with face twist < 0.02                           : 0
    faces on cells with determinant < 0.001                : 0

Merging all points on surface that
- are used by only two boundary faces and
- make an angle with a cosine of more than 0.866025.

Removing 32600 straight edge points ...

Edge intersection testing:
    Number of edges             : 40103563
    Number of edges to retest   : 142640
    Number of intersected edges : 884211

Undo iteration 0
----------------
Checking faces in error :
    non-orthogonality > 65  degrees                        : 0
    faces with face pyramid volume < 1e-13                 : 0
    faces with face-decomposition tet quality < 1e-15      : 0
    faces with concavity > 80  degrees                     : 0
    faces with skewness > 4   (internal) or 20  (boundary) : 0
    faces with interpolation weights (0..1)  < 0.02        : 0
    faces with volume ratio of neighbour cells < 0.01      : 0
    faces with face twist < 0.02                           : 0
    faces on cells with determinant < 0.001                : 0
Snapped mesh : cells:12987639  faces:40103563  points:14136414
Cells per refinement level:
    0	116523
    1	395196
    2	1350200
    3	4240631
    4	741906
    5	5301812
    6	841371
Writing mesh to time 2
Wrote mesh in = 21.02 s.
Mesh snapped in = 567.61 s.
Checking final mesh ...
Checking faces in error :
    non-orthogonality > 65  degrees                        : 0
    faces with face pyramid volume < 1e-13                 : 0
    faces with face-decomposition tet quality < 1e-15      : 0
    faces with concavity > 80  degrees                     : 0
    faces with skewness > 4   (internal) or 20  (boundary) : 0
    faces with interpolation weights (0..1)  < 0.02        : 0
    faces with volume ratio of neighbour cells < 0.01      : 0
    faces with face twist < 0.02                           : 0
    faces on cells with determinant < 0.001                : 0
Finished meshing without any errors
Finished meshing in = 708 s.
End

Finalising parallel run
