/*---------------------------------------------------------------------------*\
| =========                 |                                                 |
| \\      /  F ield         | OpenFOAM: The Open Source CFD Toolbox           |
|  \\    /   O peration     | Version:  v1812                                 |
|   \\  /    A nd           | Web:      www.OpenFOAM.com                      |
|    \\/     M anipulation  |                                                 |
\*---------------------------------------------------------------------------*/
Build  : v1812 OPENFOAM=1812
Arch   : "LSB;label=32;scalar=64"
Exec   : renumberMesh -latestTime
Date   : Mar 26 2023
Time   : 19:16:46
Host   : compute-0-4.local
PID    : 74750
I/O    : uncollated
Case   : /home/finzeo/storage/Mallas/test/GTS_ofcom9
nProcs : 1
trapFpe: Floating point exception trapping enabled (FOAM_SIGFPE).
fileModificationChecking : Monitoring run-time modified files using timeStampMaster (fileModificationSkew 10)
allowSystemOperations : Allowing user-supplied system call operations

// * * * * * * * * * * * * * * * * * * * * * * * * * * * * * * * * * * * * * //
Create time

Create mesh for time = 3

Mesh size: 22607103
Before renumbering :
    band           : 9762937
    profile        : 7.32592e+12

Using default renumberMethod.

Selecting renumberMethod CuthillMcKee


After renumbering :
    band           : 398024
    profile        : 6.42374e+12

Writing mesh to "4"
End

