/*---------------------------------------------------------------------------*\
  =========                 |
  \\      /  F ield         | OpenFOAM: The Open Source CFD Toolbox
   \\    /   O peration     | Website:  https://openfoam.org
    \\  /    A nd           | Version:  7
     \\/     M anipulation  |
\*---------------------------------------------------------------------------*/
Build  : 7
Exec   : snappyHexMesh
Date   : Aug 11 2022
Time   : 21:56:53
Host   : "compute-0-6.local"
PID    : 12384
I/O    : uncollated
Case   : /share/storage/finzeo/Mallas/GTS_Tunay/gts_converted21
nProcs : 1
sigFpe : Enabling floating point exception trapping (FOAM_SIGFPE).
fileModificationChecking : Monitoring run-time modified files using timeStampMaster (fileModificationSkew 10)
allowSystemOperations : Allowing user-supplied system call operations

// * * * * * * * * * * * * * * * * * * * * * * * * * * * * * * * * * * * * * //
Create time

Create mesh for time = 0

Read mesh in = 0.07 s

Overall mesh bounding box  : (-37.8 -18 -0.504) (117 18 32.4)
Relative tolerance         : 1e-06
Absolute matching distance : 0.000162301

Reading refinement surfaces.
Read refinement surfaces in = 5.01 s

Reading refinement shells.
Refinement level 1 for all cells inside refinementBox1
Refinement level 2 for all cells inside refinementBox2
Refinement level 3 for all cells inside refinementBox3
Refinement level 4 for all cells inside refinementBox4
Refinement level 5 for all cells inside refinementBox5
Refinement level 6 for all cells inside refinementBox6
Read refinement shells in = 0 s

Setting refinement level of surface to be consistent with shells.
Checked shell refinement in = 0 s

Reading features.
Read edgeMesh vehicleSurfaceMesh.eMesh
    points      : 4026
    edges       : 4026
    boundingBox : (-12.185 -1.3 0) (0 1.3 3.6)

Refinement level according to distance to "vehicleSurfaceMesh.eMesh" (4026 points, 4026 edges).
    level 6 for all cells within 0 metre.
Read edgeMesh topMesh.eMesh
    points      : 424
    edges       : 424
    boundingBox : (-37.8 -18 32.4) (117 18 32.4)

Refinement level according to distance to "topMesh.eMesh" (424 points, 424 edges).
    level 3 for all cells within 0 metre.
Read edgeMesh inletMesh.eMesh
    points      : 460
    edges       : 460
    boundingBox : (-37.8 -18 -0.504) (-37.8 18 32.4)

Refinement level according to distance to "inletMesh.eMesh" (460 points, 460 edges).
    level 3 for all cells within 0 metre.
Read edgeMesh outletMesh.eMesh
    points      : 460
    edges       : 460
    boundingBox : (117 -18 -0.504) (117 18 32.4)

Refinement level according to distance to "outletMesh.eMesh" (460 points, 460 edges).
    level 3 for all cells within 0 metre.
Read edgeMesh lateralMesh.eMesh
    points      : 836
    edges       : 836
    boundingBox : (-37.8 -18 -0.504) (117 18 32.4)

Refinement level according to distance to "lateralMesh.eMesh" (836 points, 836 edges).
    level 3 for all cells within 0 metre.
Read features in = 0.01 s


Determining initial surface intersections
-----------------------------------------

Edge intersection testing:
    Number of edges             : 564303
    Number of edges to retest   : 564303
    Number of intersected edges : 12738
Calculated surface intersections in = 4.09 s

Initial mesh : cells:184140  faces:564303  points:196248
Cells per refinement level:
    0	184140

Adding patches for surface regions
----------------------------------

Patch Type                Region                        
----- ----                ------                        
gtsModel:

5     wall                gtsModel                      

inlet:

6     patch               inlet                         

outlet:

7     patch               outlet                        

lateral:

8     patch               lateral                       

top:

9     patch               top                           

bottomNoSlip:

10    wall                bottomNoSlip                  

bottomSlip:

11    wall                bottomSlip                    

Added patches in = 0.01 s

 Foam::decompositionMethod::New 
{
    method          none;
    numberOfSubdomains 1;
}

Selecting decompositionMethod none
Layer thickness specified as final layer and expansion ratio.

Refinement phase
----------------

Found point (80.0001 0.0001 15.43) in cell 86607 on processor 0

Feature refinement iteration 0
------------------------------

Marked for refinement due to explicit features             : 58 cells.
Determined cells to refine in = 1.59 s
Selected for feature refinement : 58 cells (out of 184140)
Edge intersection testing:
    Number of edges             : 565869
    Number of edges to retest   : 2582
    Number of intersected edges : 13062
Refined mesh in = 0.49 s
After refinement feature refinement iteration 0 : cells:184546  faces:565869  points:197060
Cells per refinement level:
    0	184082
    1	464

Feature refinement iteration 1
------------------------------

Marked for refinement due to explicit features             : 110 cells.
Determined cells to refine in = 1.64 s
Selected for feature refinement : 214 cells (out of 184546)
Edge intersection testing:
    Number of edges             : 571248
    Number of edges to retest   : 7947
    Number of intersected edges : 13846
Refined mesh in = 0.5 s
After refinement feature refinement iteration 1 : cells:186044  faces:571248  points:199525
Cells per refinement level:
    0	183978
    1	1186
    2	880

Feature refinement iteration 2
------------------------------

Marked for refinement due to explicit features             : 232 cells.
Determined cells to refine in = 1.66 s
Selected for feature refinement : 542 cells (out of 186044)
Edge intersection testing:
    Number of edges             : 584868
    Number of edges to retest   : 20383
    Number of intersected edges : 14690
Refined mesh in = 0.53 s
After refinement feature refinement iteration 2 : cells:189838  faces:584868  points:205800
Cells per refinement level:
    0	183896
    1	1614
    2	2472
    3	1856

Feature refinement iteration 3
------------------------------

Marked for refinement due to explicit features             : 454 cells.
Determined cells to refine in = 1.69 s
Selected for feature refinement : 1138 cells (out of 189838)
Edge intersection testing:
    Number of edges             : 612987
    Number of edges to retest   : 44252
    Number of intersected edges : 19138
Refined mesh in = 0.59 s
After refinement feature refinement iteration 3 : cells:197804  faces:612987  points:218414
Cells per refinement level:
    0	183854
    1	1740
    2	3720
    3	4858
    4	3632

Feature refinement iteration 4
------------------------------

Marked for refinement due to explicit features             : 915 cells.
Determined cells to refine in = 1.75 s
Selected for feature refinement : 2313 cells (out of 197804)
Edge intersection testing:
    Number of edges             : 670272
    Number of edges to retest   : 88831
    Number of intersected edges : 25862
Refined mesh in = 0.7 s
After refinement feature refinement iteration 4 : cells:213995  faces:670272  points:244226
Cells per refinement level:
    0	183820
    1	1876
    2	4471
    3	6663
    4	9845
    5	7320

Feature refinement iteration 5
------------------------------

Marked for refinement due to explicit features             : 1876 cells.
Determined cells to refine in = 1.87 s
Selected for feature refinement : 4905 cells (out of 213995)
Edge intersection testing:
    Number of edges             : 791907
    Number of edges to retest   : 189329
    Number of intersected edges : 36158
Refined mesh in = 0.92 s
After refinement feature refinement iteration 5 : cells:248330  faces:791907  points:299055
Cells per refinement level:
    0	183818
    1	1873
    2	4307
    3	8331
    4	14893
    5	20100
    6	15008

Feature refinement iteration 6
------------------------------

Marked for refinement due to explicit features             : 0 cells.
Determined cells to refine in = 2.1 s
Selected for feature refinement : 0 cells (out of 248330)
Stopping refining since too few cells selected.


Surface refinement iteration 0
------------------------------

Marked for refinement due to surface intersection          : 1836 cells.
Marked for refinement due to curvature/regions             : 1657 cells.
Determined cells to refine in = 0.2 s
Selected for refinement : 4054 cells (out of 248330)
Edge intersection testing:
    Number of edges             : 885528
    Number of edges to retest   : 156845
    Number of intersected edges : 44384
Refined mesh in = 1.09 s
After refinement surface refinement iteration 0 : cells:276708  faces:885528  points:335919
Cells per refinement level:
    0	183724
    1	2063
    2	7487
    3	18528
    4	16840
    5	24658
    6	23408

Surface refinement iteration 1
------------------------------

Marked for refinement due to surface intersection          : 2248 cells.
Marked for refinement due to curvature/regions             : 771 cells.
Determined cells to refine in = 0.19 s
Selected for refinement : 3314 cells (out of 276708)
Edge intersection testing:
    Number of edges             : 960249
    Number of edges to retest   : 119272
    Number of intersected edges : 49746
Refined mesh in = 1.08 s
After refinement surface refinement iteration 1 : cells:299906  faces:960249  points:364281
Cells per refinement level:
    0	183698
    1	1908
    2	8322
    3	34873
    4	18074
    5	27807
    6	25224

Surface refinement iteration 2
------------------------------

Marked for refinement due to surface intersection          : 784 cells.
Marked for refinement due to curvature/regions             : 874 cells.
Determined cells to refine in = 0.23 s
Selected for refinement : 1888 cells (out of 299906)
Edge intersection testing:
    Number of edges             : 1003737
    Number of edges to retest   : 70922
    Number of intersected edges : 53858
Refined mesh in = 1.08 s
After refinement surface refinement iteration 2 : cells:313122  faces:1003737  points:381478
Cells per refinement level:
    0	183696
    1	1836
    2	8213
    3	41095
    4	19874
    5	31208
    6	27200

Surface refinement iteration 3
------------------------------

Marked for refinement due to surface intersection          : 6 cells.
Marked for refinement due to curvature/regions             : 1131 cells.
Determined cells to refine in = 0.26 s
Selected for refinement : 1351 cells (out of 313122)
Edge intersection testing:
    Number of edges             : 1036332
    Number of edges to retest   : 52264
    Number of intersected edges : 57520
Refined mesh in = 1.08 s
After refinement surface refinement iteration 3 : cells:322579  faces:1036332  points:395428
Cells per refinement level:
    0	183686
    1	1900
    2	8293
    3	41145
    4	21872
    5	36331
    6	29352

Surface refinement iteration 4
------------------------------

Marked for refinement due to surface intersection          : 0 cells.
Marked for refinement due to curvature/regions             : 1025 cells.
Determined cells to refine in = 0.28 s
Selected for refinement : 1250 cells (out of 322579)
Edge intersection testing:
    Number of edges             : 1066941
    Number of edges to retest   : 51354
    Number of intersected edges : 61245
Refined mesh in = 1.12 s
After refinement surface refinement iteration 4 : cells:331329  faces:1066941  points:408942
Cells per refinement level:
    0	183684
    1	1910
    2	8315
    3	41222
    4	22197
    5	41753
    6	32248

Surface refinement iteration 5
------------------------------

Marked for refinement due to surface intersection          : 0 cells.
Marked for refinement due to curvature/regions             : 387 cells.
Determined cells to refine in = 0.3 s
Selected for refinement : 479 cells (out of 331329)
Edge intersection testing:
    Number of edges             : 1078839
    Number of edges to retest   : 24175
    Number of intersected edges : 62776
Refined mesh in = 1.1 s
After refinement surface refinement iteration 5 : cells:334682  faces:1078839  points:414394
Cells per refinement level:
    0	183684
    1	1909
    2	8317
    3	41253
    4	22218
    5	42333
    6	34968

Surface refinement iteration 6
------------------------------

Marked for refinement due to surface intersection          : 0 cells.
Marked for refinement due to curvature/regions             : 76 cells.
Determined cells to refine in = 0.29 s
Selected for refinement : 101 cells (out of 334682)
Edge intersection testing:
    Number of edges             : 1081215
    Number of edges to retest   : 6289
    Number of intersected edges : 62959
Refined mesh in = 1.08 s
After refinement surface refinement iteration 6 : cells:335389  faces:1081215  points:415371
Cells per refinement level:
    0	183684
    1	1909
    2	8314
    3	41270
    4	22259
    5	42377
    6	35576

Surface refinement iteration 7
------------------------------

Marked for refinement due to surface intersection          : 0 cells.
Marked for refinement due to curvature/regions             : 4 cells.
Determined cells to refine in = 0.3 s
Selected for refinement : 7 cells (out of 335389)
Stopping refining since too few cells selected.


Removing mesh beyond surface intersections
------------------------------------------

Found point (80.0001 0.0001 15.43) in global region 0 out of 2 regions.
Keeping all cells in region 0 containing point (80.0001 0.0001 15.43)
Selected for keeping : 308451 cells.
Edge intersection testing:
    Number of edges             : 1011479
    Number of edges to retest   : 39508
    Number of intersected edges : 62959

Shell refinement iteration 0
----------------------------

Marked for refinement due to distance to explicit features : 0 cells.
Marked for refinement due to refinement shells             : 170264 cells.
Determined cells to refine in = 7.2 s
Selected for internal refinement : 172906 cells (out of 308451)
Edge intersection testing:
    Number of edges             : 4775255
    Number of edges to retest   : 4471439
    Number of intersected edges : 148442
Refined mesh in = 9.87 s
After refinement shell refinement iteration 0 : cells:1518793  faces:4775255  points:1739019
Cells per refinement level:
    0	104563
    1	632968
    2	13624
    3	44880
    4	246968
    5	153456
    6	322334

Shell refinement iteration 1
----------------------------

Marked for refinement due to distance to explicit features : 0 cells.
Marked for refinement due to refinement shells             : 604409 cells.
Determined cells to refine in = 0.9 s
Selected for internal refinement : 618749 cells (out of 1518793)
Edge intersection testing:
    Number of edges             : 18017456
    Number of edges to retest   : 15911004
    Number of intersected edges : 294903
Refined mesh in = 35.05 s
After refinement shell refinement iteration 1 : cells:5850036  faces:18017456  points:6315856
Cells per refinement level:
    0	104474
    1	443792
    2	1519104
    3	108992
    4	359040
    5	2005900
    6	1308734

Shell refinement iteration 2
----------------------------

Marked for refinement due to distance to explicit features : 0 cells.
Marked for refinement due to refinement shells             : 2200319 cells.
Determined cells to refine in = 3.15 s
Selected for internal refinement : 2214389 cells (out of 5850036)
Edge intersection testing:
    Number of edges             : 65029625
    Number of edges to retest   : 56075512
    Number of intersected edges : 715678
Refined mesh in = 126.36 s
After refinement shell refinement iteration 2 : cells:21350759  faces:65029625  points:22323299
Cells per refinement level:
    0	104469
    1	443832
    2	910720
    3	4867072
    4	937576
    5	3149492
    6	10937598

Shell refinement iteration 3
----------------------------

Marked for refinement due to distance to explicit features : 0 cells.
Marked for refinement due to refinement shells             : 1991936 cells.
Determined cells to refine in = 7.27 s
Selected for internal refinement : 1991942 cells (out of 21350759)
Edge intersection testing:
    Number of edges             : 107028455
    Number of edges to retest   : 49480372
    Number of intersected edges : 715678
Refined mesh in = 161.43 s
After refinement shell refinement iteration 3 : cells:35294353  faces:107028455  points:36435313
Cells per refinement level:
    0	104469
    1	443832
    2	910720
    3	3142144
    4	14528354
    5	4760292
    6	11404542

Shell refinement iteration 4
----------------------------

Marked for refinement due to distance to explicit features : 0 cells.
Marked for refinement due to refinement shells             : 897354 cells.
Determined cells to refine in = 10.07 s
Selected for internal refinement : 897354 cells (out of 35294353)
Edge intersection testing:
    Number of edges             : 125947340
    Number of edges to retest   : 22116558
    Number of intersected edges : 715678
Refined mesh in = 159.41 s
After refinement shell refinement iteration 4 : cells:41575831  faces:125947340  points:42791422
Cells per refinement level:
    0	104469
    1	443832
    2	910720
    3	3142144
    4	13655298
    5	11720442
    6	11598926

Shell refinement iteration 5
----------------------------

Marked for refinement due to distance to explicit features : 0 cells.
Marked for refinement due to refinement shells             : 0 cells.
Determined cells to refine in = 11.14 s
Selected for internal refinement : 0 cells (out of 41575831)
Stopping refining since too few cells selected.


Dangling coarse cells refinement iteration 0
--------------------------------------------

Determined cells to refine in = 1.24 s
Selected for refinement : 59 cells (out of 41575831)
Edge intersection testing:
    Number of edges             : 125948225
    Number of edges to retest   : 7116
    Number of intersected edges : 715678
Refined mesh in = 140.17 s
After refinement coarse cell refinement iteration 0 : cells:41576244  faces:125948225  points:42791540
Cells per refinement level:
    0	104410
    1	444304
    2	910720
    3	3142144
    4	13655298
    5	11720442
    6	11598926

Dangling coarse cells refinement iteration 1
--------------------------------------------

Determined cells to refine in = 1.62 s
Selected for refinement : 0 cells (out of 41576244)
Stopping refining since too few cells selected.


Dangling coarse cells refinement iteration 0
--------------------------------------------

Determined cells to refine in = 1.24 s
Selected for refinement : 0 cells (out of 41576244)
Stopping refining since too few cells selected.


Splitting mesh at surface intersections
---------------------------------------

Introducing baffles for 715678 faces that are intersected by the surface.

Edge intersection testing:
    Number of edges             : 126635469
    Number of edges to retest   : 5468216
    Number of intersected edges : 1402922
Created baffles in = 108.45 s


After introducing baffles : cells:41576244  faces:126635469  points:42791540
Cells per refinement level:
    0	104410
    1	444304
    2	910720
    3	3142144
    4	13655298
    5	11720442
    6	11598926

Introducing baffles to block off problem cells
----------------------------------------------

markFacesOnProblemCells : marked 49182 additional internal faces to be converted into baffles.
Analyzed problem cells in = 109.21 s


Introducing baffles to delete problem cells.

Edge intersection testing:
    Number of edges             : 126684651
    Number of edges to retest   : 189863
    Number of intersected edges : 1402922
Created baffles in = 105.55 s


After introducing baffles : cells:41576244  faces:126684651  points:42791540
Cells per refinement level:
    0	104410
    1	444304
    2	910720
    3	3142144
    4	13655298
    5	11720442
    6	11598926

Remove unreachable sections of mesh
-----------------------------------

Keeping all cells in region 0 containing point (80.0001 0.0001 15.43)
Selected for keeping : 35847225 cells.
Edge intersection testing:
    Number of edges             : 108739796
    Number of edges to retest   : 0
    Number of intersected edges : 715664
Split mesh in = 1220.84 s


After subsetting : cells:35847225  faces:108739796  points:37046996
Cells per refinement level:
    0	104410
    1	444304
    2	910720
    3	3142144
    4	13655298
    5	11720442
    6	5869907

Handling cells with snap problems
---------------------------------

Introducing baffles for 715664 faces that are intersected by the surface.

Edge intersection testing:
    Number of edges             : 108739796
    Number of edges to retest   : 2802728
    Number of intersected edges : 715664
Created baffles in = 77.95 s


After introducing baffles : cells:35847225  faces:108739796  points:37046996
Cells per refinement level:
    0	104410
    1	444304
    2	910720
    3	3142144
    4	13655298
    5	11720442
    6	5869907

Introducing baffles to block off problem cells
----------------------------------------------

markFacesOnProblemCells : marked 0 additional internal faces to be converted into baffles.
Analyzed problem cells in = 89.39 s


Introducing baffles to delete problem cells.

Edge intersection testing:
    Number of edges             : 108739796
    Number of edges to retest   : 0
    Number of intersected edges : 715664
Created baffles in = 72.49 s


After introducing baffles : cells:35847225  faces:108739796  points:37046996
Cells per refinement level:
    0	104410
    1	444304
    2	910720
    3	3142144
    4	13655298
    5	11720442
    6	5869907

Remove unreachable sections of mesh
-----------------------------------

Keeping all cells in region 0 containing point (80.0001 0.0001 15.43)
Selected for keeping : 35847225 cells.
Edge intersection testing:
    Number of edges             : 108739796
    Number of edges to retest   : 0
    Number of intersected edges : 715664
Split mesh in = 1069.93 s


After subsetting : cells:35847225  faces:108739796  points:37046996
Cells per refinement level:
    0	104410
    1	444304
    2	910720
    3	3142144
    4	13655298
    5	11720442
    6	5869907

Merge free-standing baffles
---------------------------

freeStandingBaffles : detected 2 free-standing baffles out of 2

freeStandingBaffles : detected 2 planar (within 15 degrees) free-standing baffles out of 2

Detected free-standing baffles : 2
Edge intersection testing:
    Number of edges             : 108739794
    Number of edges to retest   : 2
    Number of intersected edges : 715662

Introducing baffles to block off problem cells
----------------------------------------------

markFacesOnProblemCells : marked 0 additional internal faces to be converted into baffles.
Analyzed problem cells in = 177.29 s


Introducing baffles to delete problem cells.

Edge intersection testing:
    Number of edges             : 108739794
    Number of edges to retest   : 0
    Number of intersected edges : 715662
Created baffles in = 69.35 s


After introducing baffles : cells:35847225  faces:108739794  points:37046996
Cells per refinement level:
    0	104410
    1	444304
    2	910720
    3	3142144
    4	13655298
    5	11720442
    6	5869907
Merged free-standing baffles in = 0.34 s


dupNonManifoldPoints : Found : 0 non-manifold points (out of 37046996)
Edge intersection testing:
    Number of edges             : 108739794
    Number of edges to retest   : 0
    Number of intersected edges : 715662
Detected unsplittable baffles : 0

Merge refined boundary faces
----------------------------

Merging 0 sets of faces.

No faces merged ...

Merging all points on surface that
- are used by only two boundary faces and
- make an angle with a cosine of more than 0.707107.

No straight edges simplified and no points removed ...
Refined mesh : cells:35847225  faces:108739794  points:37046996
Cells per refinement level:
    0	104410
    1	444304
    2	910720
    3	3142144
    4	13655298
    5	11720442
    6	5869907
Writing mesh to time 1
Wrote mesh in = 107.03 s.
Mesh refined in = 3909.65 s.

Morphing phase
--------------


Snapping to features in 10 iterations ...
Constructing mesh displacer ...
Using mesh parameters 
{
    maxNonOrtho     65;
    maxBoundarySkewness 20;
    maxInternalSkewness 4;
    maxConcave      80;
    minVol          1e-13;
    minTetQuality   1e-15;
    minArea         -1;
    minTwist        0.02;
    minDeterminant  0.001;
    minFaceWeight   0.02;
    minVolRatio     0.01;
    minTriangleTwist -1;
    nSmoothScale    4;
    errorReduction  0.75;
}


Checking initial mesh ...
Checking faces in error :
    non-orthogonality > 65  degrees                        : 0
    faces with face pyramid volume < 1e-13                 : 0
    faces with face-decomposition tet quality < 1e-15      : 0
    faces with concavity > 80  degrees                     : 0
    faces with skewness > 4   (internal) or 20  (boundary) : 0
    faces with interpolation weights (0..1)  < 0.02        : 0
    faces with volume ratio of neighbour cells < 0.01      : 0
    faces with face twist < 0.02                           : 0
    faces on cells with determinant < 0.001                : 0
Detected 0 illegal faces (concave, zero area or negative cell pyramid volume)
Checked initial mesh in = 131.77 s


Smoothing patch points ...
Smoothing iteration 0
Found 0 non-manifold point(s).

Scaling iteration 0
Moving mesh using displacement scaling : min:1  max:1
Checking faces in error :
    non-orthogonality > 65  degrees                        : 0
    faces with face pyramid volume < 1e-13                 : 0
    faces with face-decomposition tet quality < 1e-15      : 0
    faces with concavity > 80  degrees                     : 0
    faces with skewness > 4   (internal) or 20  (boundary) : 0
    faces with interpolation weights (0..1)  < 0.02        : 0
    faces with volume ratio of neighbour cells < 0.01      : 0
    faces with face twist < 0.02                           : 0
    faces on cells with determinant < 0.001                : 0
Successfully moved mesh

Smoothing iteration 1
Found 0 non-manifold point(s).

Scaling iteration 0
Moving mesh using displacement scaling : min:1  max:1
Checking faces in error :
    non-orthogonality > 65  degrees                        : 0
    faces with face pyramid volume < 1e-13                 : 0
    faces with face-decomposition tet quality < 1e-15      : 0
    faces with concavity > 80  degrees                     : 0
    faces with skewness > 4   (internal) or 20  (boundary) : 0
    faces with interpolation weights (0..1)  < 0.02        : 0
    faces with volume ratio of neighbour cells < 0.01      : 0
    faces with face twist < 0.02                           : 0
    faces on cells with determinant < 0.001                : 0
Successfully moved mesh

Smoothing iteration 2
Found 0 non-manifold point(s).

Scaling iteration 0
Moving mesh using displacement scaling : min:1  max:1
Checking faces in error :
    non-orthogonality > 65  degrees                        : 0
    faces with face pyramid volume < 1e-13                 : 0
    faces with face-decomposition tet quality < 1e-15      : 0
    faces with concavity > 80  degrees                     : 0
    faces with skewness > 4   (internal) or 20  (boundary) : 0
    faces with interpolation weights (0..1)  < 0.02        : 0
    faces with volume ratio of neighbour cells < 0.01      : 0
    faces with face twist < 0.02                           : 0
    faces on cells with determinant < 0.001                : 0
Successfully moved mesh

Patch points smoothed in = 549.02 s



Morph iteration 0
-----------------
Calculating patchDisplacement as distance to nearest surface point ...
Wanted displacement : average:0.0062203 min:3.14541e-09 max:0.470172
Calculated surface displacement in = 1.69 s


Detecting near surfaces ...
Overriding nearest with intersection of close gaps at 0 out of 716356 points.
Overriding displacement on features :
   implicit features    : false
   explicit features    : true
   multi-patch features : false

Detected 0 baffle edges out of 1432022 edges.
Initially selected 4950 points out of 716356 for reverse attraction.
Selected 13704 points out of 716356 for reverse attraction.
Stringing feature edges : changed 77 points
Stringing feature edges : changed 4 points
Stringing feature edges : changed 0 points
Attraction:
     linear   : max:(0.470172 0 0) avg:(0.000130112 -4.77665e-08 0.00180848)
     feature  : max:(0.470172 0.470779 0) avg:(1.00008e-05 -1.27067e-09 1.86321e-05)
Feature analysis : total master points:716356 attraction to :
    feature point   : 16
    feature edge    : 4878
    nearest surface : 0
    rest            : 711462

--> FOAM Warning : Displacement (7.51917e-06 3.25952e-17 0.00045595) at mesh point 1303032 coord (-0.0987097 -1.01563 3.59543) points through the surrounding patch faces
Smoothing displacement ...
Iteration 0
Iteration 10
Iteration 20
Displacement smoothed in = 181.04 s


Moving mesh ...

Iteration 0
Moving mesh using displacement scaling : min:1  max:1
Checking faces in error :
    non-orthogonality > 65  degrees                        : 0
    faces with face pyramid volume < 1e-13                 : 0
    faces with face-decomposition tet quality < 1e-15      : 0
    faces with concavity > 80  degrees                     : 0
    faces with skewness > 4   (internal) or 20  (boundary) : 0
    faces with interpolation weights (0..1)  < 0.02        : 0
    faces with volume ratio of neighbour cells < 0.01      : 0
    faces with face twist < 0.02                           : 0
    faces on cells with determinant < 0.001                : 0
Successfully moved mesh
Moved mesh in = 177.03 s



Morph iteration 1
-----------------
Calculating patchDisplacement as distance to nearest surface point ...
Wanted displacement : average:0.00561996 min:8.10623e-09 max:0.423154
Calculated surface displacement in = 1.84 s


Detecting near surfaces ...
Overriding nearest with intersection of close gaps at 0 out of 716356 points.
Overriding displacement on features :
   implicit features    : false
   explicit features    : true
   multi-patch features : false

Detected 0 baffle edges out of 1432022 edges.
Initially selected 4950 points out of 716356 for reverse attraction.
Selected 13699 points out of 716356 for reverse attraction.
Stringing feature edges : changed 72 points
Stringing feature edges : changed 4 points
Stringing feature edges : changed 0 points
Attraction:
     linear   : max:(0.423154 0 0) avg:(0.000117359 -4.49306e-08 0.00162994)
     feature  : max:(0.423154 0.466071 0) avg:(9.73018e-06 -1.69755e-10 1.82432e-05)
Feature analysis : total master points:716356 attraction to :
    feature point   : 16
    feature edge    : 4875
    nearest surface : 0
    rest            : 711465

--> FOAM Warning : Displacement (1.18472e-05 -1.57625e-13 0.000824827) at mesh point 1303032 coord (-0.0987022 -1.01563 3.59589) points through the surrounding patch faces
Smoothing displacement ...
Iteration 0
Iteration 10
Iteration 20
Displacement smoothed in = 181.43 s


Moving mesh ...

Iteration 0
Moving mesh using displacement scaling : min:1  max:1
Checking faces in error :
    non-orthogonality > 65  degrees                        : 0
    faces with face pyramid volume < 1e-13                 : 0
    faces with face-decomposition tet quality < 1e-15      : 0
    faces with concavity > 80  degrees                     : 0
    faces with skewness > 4   (internal) or 20  (boundary) : 0
    faces with interpolation weights (0..1)  < 0.02        : 0
    faces with volume ratio of neighbour cells < 0.01      : 0
    faces with face twist < 0.02                           : 0
    faces on cells with determinant < 0.001                : 0
Successfully moved mesh
Moved mesh in = 177.34 s



Morph iteration 2
-----------------
Calculating patchDisplacement as distance to nearest surface point ...
Wanted displacement : average:0.00452895 min:8.10623e-09 max:0.338524
Calculated surface displacement in = 1.78 s


Detecting near surfaces ...
Overriding nearest with intersection of close gaps at 0 out of 716356 points.
Overriding displacement on features :
   implicit features    : false
   explicit features    : true
   multi-patch features : false

Detected 0 baffle edges out of 1432022 edges.
Initially selected 4950 points out of 716356 for reverse attraction.
Selected 13690 points out of 716356 for reverse attraction.
Stringing feature edges : changed 65 points
Stringing feature edges : changed 0 points
Attraction:
     linear   : max:(0.338524 0 0) avg:(9.4153e-05 -3.80258e-08 0.00130743)
     feature  : max:(0.338524 0.447428 0) avg:(9.09482e-06 -8.54421e-09 1.72187e-05)
Feature analysis : total master points:716356 attraction to :
    feature point   : 16
    feature edge    : 4870
    nearest surface : 0
    rest            : 711470

--> FOAM Warning : Displacement (1.14419e-05 -3.69813e-12 0.000995686) at mesh point 1303032 coord (-0.0986903 -1.01563 3.59671) points through the surrounding patch faces
Smoothing displacement ...
Iteration 0
Iteration 10
Iteration 20
Displacement smoothed in = 182.47 s


Moving mesh ...

Iteration 0
Moving mesh using displacement scaling : min:1  max:1
Checking faces in error :
    non-orthogonality > 65  degrees                        : 0
    faces with face pyramid volume < 1e-13                 : 0
    faces with face-decomposition tet quality < 1e-15      : 0
    faces with concavity > 80  degrees                     : 0
    faces with skewness > 4   (internal) or 20  (boundary) : 0
    faces with interpolation weights (0..1)  < 0.02        : 0
    faces with volume ratio of neighbour cells < 0.01      : 0
    faces with face twist < 0.02                           : 0
    faces on cells with determinant < 0.001                : 0
Successfully moved mesh
Moved mesh in = 177.45 s



Morph iteration 3
-----------------
Calculating patchDisplacement as distance to nearest surface point ...
Wanted displacement : average:0.00320404 min:5.697e-09 max:0.236967
Calculated surface displacement in = 1.72 s


Detecting near surfaces ...
Overriding nearest with intersection of close gaps at 0 out of 716356 points.
Overriding displacement on features :
   implicit features    : false
   explicit features    : true
   multi-patch features : false

Detected 0 baffle edges out of 1432022 edges.
Initially selected 4941 points out of 716356 for reverse attraction.
Selected 13655 points out of 716356 for reverse attraction.
Stringing feature edges : changed 60 points
Stringing feature edges : changed 0 points
Attraction:
     linear   : max:(0.236967 0 0) avg:(6.5926e-05 -2.94272e-08 0.000918362)
     feature  : max:(0.236967 0.40716 0) avg:(7.95255e-06 -8.43182e-09 1.5305e-05)
Feature analysis : total master points:716356 attraction to :
    feature point   : 16
    feature edge    : 4863
    nearest surface : 0
    rest            : 711477

--> FOAM Warning : Displacement (7.22301e-06 -2.69829e-12 0.000931797) at mesh point 1303032 coord (-0.0986789 -1.01563 3.59771) points through the surrounding patch faces
Smoothing displacement ...
Iteration 0
Iteration 10
Iteration 20
Displacement smoothed in = 183.78 s


Moving mesh ...

Iteration 0
Moving mesh using displacement scaling : min:1  max:1
Checking faces in error :
    non-orthogonality > 65  degrees                        : 0
    faces with face pyramid volume < 1e-13                 : 0
    faces with face-decomposition tet quality < 1e-15      : 0
    faces with concavity > 80  degrees                     : 0
    faces with skewness > 4   (internal) or 20  (boundary) : 0
    faces with interpolation weights (0..1)  < 0.02        : 0
    faces with volume ratio of neighbour cells < 0.01      : 0
    faces with face twist < 0.02                           : 0
    faces on cells with determinant < 0.001                : 0
Successfully moved mesh
Moved mesh in = 177.56 s



Morph iteration 4
-----------------
Calculating patchDisplacement as distance to nearest surface point ...
Wanted displacement : average:0.00195622 min:4.05176e-09 max:0.14218
Calculated surface displacement in = 1.67 s


Detecting near surfaces ...
Overriding nearest with intersection of close gaps at 0 out of 716356 points.
Overriding displacement on features :
   implicit features    : false
   explicit features    : true
   multi-patch features : false

Detected 0 baffle edges out of 1432022 edges.
Initially selected 4939 points out of 716356 for reverse attraction.
Selected 13642 points out of 716356 for reverse attraction.
Stringing feature edges : changed 53 points
Stringing feature edges : changed 0 points
Attraction:
     linear   : max:(0.14218 0 0) avg:(3.91215e-05 -1.99378e-08 0.000552503)
     feature  : max:(0.14218 0.342014 0) avg:(6.38567e-06 -1.75202e-08 1.25481e-05)
Feature analysis : total master points:716356 attraction to :
    feature point   : 16
    feature edge    : 4862
    nearest surface : 0
    rest            : 711478

--> FOAM Warning : Displacement (2.05989e-06 2.59334e-11 0.000693582) at mesh point 1303032 coord (-0.0986716 -1.01563 3.59864) points through the surrounding patch faces
Smoothing displacement ...
Iteration 0
Iteration 10
Iteration 20
Displacement smoothed in = 183.77 s


Moving mesh ...

Iteration 0
Moving mesh using displacement scaling : min:1  max:1
Checking faces in error :
    non-orthogonality > 65  degrees                        : 0
    faces with face pyramid volume < 1e-13                 : 0
    faces with face-decomposition tet quality < 1e-15      : 0
    faces with concavity > 80  degrees                     : 0
    faces with skewness > 4   (internal) or 20  (boundary) : 0
    faces with interpolation weights (0..1)  < 0.02        : 0
    faces with volume ratio of neighbour cells < 0.01      : 0
    faces with face twist < 0.02                           : 0
    faces on cells with determinant < 0.001                : 0
Successfully moved mesh
Moved mesh in = 177.65 s



Morph iteration 5
-----------------
Calculating patchDisplacement as distance to nearest surface point ...
Wanted displacement : average:0.00100683 min:8.10623e-09 max:0.07109
Calculated surface displacement in = 1.59 s


Detecting near surfaces ...
Overriding nearest with intersection of close gaps at 0 out of 716356 points.
Overriding displacement on features :
   implicit features    : false
   explicit features    : true
   multi-patch features : false

Detected 0 baffle edges out of 1432022 edges.
Initially selected 4939 points out of 716356 for reverse attraction.
Selected 13642 points out of 716356 for reverse attraction.
Stringing feature edges : changed 47 points
Stringing feature edges : changed 0 points
Attraction:
     linear   : max:(0.07109 0 0) avg:(1.86211e-05 -9.47374e-09 0.00027533)
     feature  : max:(0.07109 0.256511 0) avg:(4.61335e-06 -1.26728e-08 9.23919e-06)
Feature analysis : total master points:716356 attraction to :
    feature point   : 14
    feature edge    : 4866
    nearest surface : 0
    rest            : 711476

--> FOAM Warning : Displacement (-1.65865e-06 4.69867e-11 0.000404852) at mesh point 1303032 coord (-0.0986696 -1.01562 3.59933) points through the surrounding patch faces
Smoothing displacement ...
Iteration 0
Iteration 10
Iteration 20
Displacement smoothed in = 184.49 s


Moving mesh ...

Iteration 0
Moving mesh using displacement scaling : min:1  max:1
Checking faces in error :
    non-orthogonality > 65  degrees                        : 0
    faces with face pyramid volume < 1e-13                 : 0
    faces with face-decomposition tet quality < 1e-15      : 2
    faces with concavity > 80  degrees                     : 0
    faces with skewness > 4   (internal) or 20  (boundary) : 0
    faces with interpolation weights (0..1)  < 0.02        : 0
    faces with volume ratio of neighbour cells < 0.01      : 0
    faces with face twist < 0.02                           : 0
    faces on cells with determinant < 0.001                : 0

Iteration 1
Moving mesh using displacement scaling : min:0.75  max:1
Checking faces in error :
    non-orthogonality > 65  degrees                        : 0
    faces with face pyramid volume < 1e-13                 : 0
    faces with face-decomposition tet quality < 1e-15      : 2
    faces with concavity > 80  degrees                     : 0
    faces with skewness > 4   (internal) or 20  (boundary) : 0
    faces with interpolation weights (0..1)  < 0.02        : 0
    faces with volume ratio of neighbour cells < 0.01      : 0
    faces with face twist < 0.02                           : 0
    faces on cells with determinant < 0.001                : 0

Iteration 2
Moving mesh using displacement scaling : min:0.5625  max:1
Checking faces in error :
    non-orthogonality > 65  degrees                        : 0
    faces with face pyramid volume < 1e-13                 : 0
    faces with face-decomposition tet quality < 1e-15      : 0
    faces with concavity > 80  degrees                     : 0
    faces with skewness > 4   (internal) or 20  (boundary) : 0
    faces with interpolation weights (0..1)  < 0.02        : 0
    faces with volume ratio of neighbour cells < 0.01      : 0
    faces with face twist < 0.02                           : 2
    faces on cells with determinant < 0.001                : 0

Iteration 3
Moving mesh using displacement scaling : min:0.421875  max:1
Checking faces in error :
    non-orthogonality > 65  degrees                        : 0
    faces with face pyramid volume < 1e-13                 : 0
    faces with face-decomposition tet quality < 1e-15      : 0
    faces with concavity > 80  degrees                     : 0
    faces with skewness > 4   (internal) or 20  (boundary) : 0
    faces with interpolation weights (0..1)  < 0.02        : 0
    faces with volume ratio of neighbour cells < 0.01      : 0
    faces with face twist < 0.02                           : 0
    faces on cells with determinant < 0.001                : 0
Successfully moved mesh
Moved mesh in = 361.87 s



Morph iteration 6
-----------------
Calculating patchDisplacement as distance to nearest surface point ...
Wanted displacement : average:0.000428761 min:8.10623e-09 max:0.028436
Calculated surface displacement in = 1.48 s


Detecting near surfaces ...
Overriding nearest with intersection of close gaps at 10 out of 716356 points.
Overriding displacement on features :
   implicit features    : false
   explicit features    : true
   multi-patch features : false

Detected 0 baffle edges out of 1432022 edges.
Initially selected 4937 points out of 716356 for reverse attraction.
Selected 13636 points out of 716356 for reverse attraction.
Stringing feature edges : changed 47 points
Stringing feature edges : changed 0 points
Attraction:
     linear   : max:(0.028436 0 0) avg:(6.18719e-06 -2.13755e-09 0.000107137)
     feature  : max:(0.140974 0.141156 0) avg:(2.84558e-06 -7.59167e-09 5.82245e-06)
Feature analysis : total master points:716356 attraction to :
    feature point   : 14
    feature edge    : 4866
    nearest surface : 0
    rest            : 711476

--> FOAM Warning : Displacement (-3.49436e-06 2.32023e-11 0.000179433) at mesh point 1303032 coord (-0.0986712 -1.01562 3.59974) points through the surrounding patch faces
Smoothing displacement ...
Iteration 0
Iteration 10
Iteration 20
Displacement smoothed in = 184.12 s


Moving mesh ...

Iteration 0
Moving mesh using displacement scaling : min:1  max:1
Checking faces in error :
    non-orthogonality > 65  degrees                        : 0
    faces with face pyramid volume < 1e-13                 : 0
    faces with face-decomposition tet quality < 1e-15      : 2
    faces with concavity > 80  degrees                     : 0
    faces with skewness > 4   (internal) or 20  (boundary) : 0
    faces with interpolation weights (0..1)  < 0.02        : 0
    faces with volume ratio of neighbour cells < 0.01      : 0
    faces with face twist < 0.02                           : 0
    faces on cells with determinant < 0.001                : 0

Iteration 1
Moving mesh using displacement scaling : min:0.75  max:1
Checking faces in error :
    non-orthogonality > 65  degrees                        : 0
    faces with face pyramid volume < 1e-13                 : 0
    faces with face-decomposition tet quality < 1e-15      : 2
    faces with concavity > 80  degrees                     : 0
    faces with skewness > 4   (internal) or 20  (boundary) : 0
    faces with interpolation weights (0..1)  < 0.02        : 0
    faces with volume ratio of neighbour cells < 0.01      : 0
    faces with face twist < 0.02                           : 0
    faces on cells with determinant < 0.001                : 0

Iteration 2
Moving mesh using displacement scaling : min:0.5625  max:1
Checking faces in error :
    non-orthogonality > 65  degrees                        : 0
    faces with face pyramid volume < 1e-13                 : 0
    faces with face-decomposition tet quality < 1e-15      : 2
    faces with concavity > 80  degrees                     : 0
    faces with skewness > 4   (internal) or 20  (boundary) : 0
    faces with interpolation weights (0..1)  < 0.02        : 0
    faces with volume ratio of neighbour cells < 0.01      : 0
    faces with face twist < 0.02                           : 0
    faces on cells with determinant < 0.001                : 0

Iteration 3
Moving mesh using displacement scaling : min:0.421875  max:1
Checking faces in error :
    non-orthogonality > 65  degrees                        : 0
    faces with face pyramid volume < 1e-13                 : 0
    faces with face-decomposition tet quality < 1e-15      : 2
    faces with concavity > 80  degrees                     : 0
    faces with skewness > 4   (internal) or 20  (boundary) : 0
    faces with interpolation weights (0..1)  < 0.02        : 0
    faces with volume ratio of neighbour cells < 0.01      : 0
    faces with face twist < 0.02                           : 0
    faces on cells with determinant < 0.001                : 0

Iteration 4
Moving mesh using displacement scaling : min:0.316406  max:1
Checking faces in error :
    non-orthogonality > 65  degrees                        : 0
    faces with face pyramid volume < 1e-13                 : 0
    faces with face-decomposition tet quality < 1e-15      : 2
    faces with concavity > 80  degrees                     : 0
    faces with skewness > 4   (internal) or 20  (boundary) : 0
    faces with interpolation weights (0..1)  < 0.02        : 0
    faces with volume ratio of neighbour cells < 0.01      : 0
    faces with face twist < 0.02                           : 0
    faces on cells with determinant < 0.001                : 0

Iteration 5
Displacement scaling for error reduction set to 0.
Moving mesh using displacement scaling : min:0.237305  max:1
Checking faces in error :
    non-orthogonality > 65  degrees                        : 0
    faces with face pyramid volume < 1e-13                 : 0
    faces with face-decomposition tet quality < 1e-15      : 2
    faces with concavity > 80  degrees                     : 0
    faces with skewness > 4   (internal) or 20  (boundary) : 0
    faces with interpolation weights (0..1)  < 0.02        : 0
    faces with volume ratio of neighbour cells < 0.01      : 0
    faces with face twist < 0.02                           : 0
    faces on cells with determinant < 0.001                : 0

Iteration 6
Moving mesh using displacement scaling : min:0  max:1
Checking faces in error :
    non-orthogonality > 65  degrees                        : 0
    faces with face pyramid volume < 1e-13                 : 0
    faces with face-decomposition tet quality < 1e-15      : 0
    faces with concavity > 80  degrees                     : 0
    faces with skewness > 4   (internal) or 20  (boundary) : 0
    faces with interpolation weights (0..1)  < 0.02        : 0
    faces with volume ratio of neighbour cells < 0.01      : 0
    faces with face twist < 0.02                           : 0
    faces on cells with determinant < 0.001                : 0
Successfully moved mesh
Moved mesh in = 546.17 s



Morph iteration 7
-----------------
Calculating patchDisplacement as distance to nearest surface point ...
Wanted displacement : average:0.000154452 min:1.60257e-09 max:0.0400109
Calculated surface displacement in = 1.45 s


Detecting near surfaces ...
Overriding nearest with intersection of close gaps at 26 out of 716356 points.
Overriding displacement on features :
   implicit features    : false
   explicit features    : true
   multi-patch features : false

Detected 0 baffle edges out of 1432022 edges.
Initially selected 4939 points out of 716356 for reverse attraction.
Selected 13636 points out of 716356 for reverse attraction.
Stringing feature edges : changed 49 points
Stringing feature edges : changed 0 points
Attraction:
     linear   : max:(0 0.0400109 0) avg:(6.54396e-07 1.62723e-09 2.84112e-05)
     feature  : max:(0.106435 0.106573 -7.10543e-15) avg:(1.3554e-06 -6.54282e-10 2.92382e-06)
Feature analysis : total master points:716356 attraction to :
    feature point   : 16
    feature edge    : 4872
    nearest surface : 0
    rest            : 711468

--> FOAM Warning : Displacement (-2.13057e-06 1.67074e-09 3.55872e-06) at mesh point 13233733 coord (-10.886 0.031248 3.28473) points through the surrounding patch faces
Smoothing displacement ...
Iteration 0
Iteration 10
Iteration 20
Displacement smoothed in = 184.51 s


Moving mesh ...

Iteration 0
Moving mesh using displacement scaling : min:1  max:1
Checking faces in error :
    non-orthogonality > 65  degrees                        : 0
    faces with face pyramid volume < 1e-13                 : 0
    faces with face-decomposition tet quality < 1e-15      : 5
    faces with concavity > 80  degrees                     : 0
    faces with skewness > 4   (internal) or 20  (boundary) : 0
    faces with interpolation weights (0..1)  < 0.02        : 0
    faces with volume ratio of neighbour cells < 0.01      : 0
    faces with face twist < 0.02                           : 0
    faces on cells with determinant < 0.001                : 0

Iteration 1
Moving mesh using displacement scaling : min:0.75  max:1
Checking faces in error :
    non-orthogonality > 65  degrees                        : 0
    faces with face pyramid volume < 1e-13                 : 0
    faces with face-decomposition tet quality < 1e-15      : 3
    faces with concavity > 80  degrees                     : 0
    faces with skewness > 4   (internal) or 20  (boundary) : 0
    faces with interpolation weights (0..1)  < 0.02        : 0
    faces with volume ratio of neighbour cells < 0.01      : 0
    faces with face twist < 0.02                           : 0
    faces on cells with determinant < 0.001                : 0

Iteration 2
Moving mesh using displacement scaling : min:0.5625  max:1
Checking faces in error :
    non-orthogonality > 65  degrees                        : 0
    faces with face pyramid volume < 1e-13                 : 0
    faces with face-decomposition tet quality < 1e-15      : 3
    faces with concavity > 80  degrees                     : 0
    faces with skewness > 4   (internal) or 20  (boundary) : 0
    faces with interpolation weights (0..1)  < 0.02        : 0
    faces with volume ratio of neighbour cells < 0.01      : 0
    faces with face twist < 0.02                           : 0
    faces on cells with determinant < 0.001                : 0

Iteration 3
Moving mesh using displacement scaling : min:0.421875  max:1
Checking faces in error :
    non-orthogonality > 65  degrees                        : 0
    faces with face pyramid volume < 1e-13                 : 0
    faces with face-decomposition tet quality < 1e-15      : 3
    faces with concavity > 80  degrees                     : 0
    faces with skewness > 4   (internal) or 20  (boundary) : 0
    faces with interpolation weights (0..1)  < 0.02        : 0
    faces with volume ratio of neighbour cells < 0.01      : 0
    faces with face twist < 0.02                           : 0
    faces on cells with determinant < 0.001                : 0

Iteration 4
Moving mesh using displacement scaling : min:0.316406  max:1
Checking faces in error :
    non-orthogonality > 65  degrees                        : 0
    faces with face pyramid volume < 1e-13                 : 0
    faces with face-decomposition tet quality < 1e-15      : 3
    faces with concavity > 80  degrees                     : 0
    faces with skewness > 4   (internal) or 20  (boundary) : 0
    faces with interpolation weights (0..1)  < 0.02        : 0
    faces with volume ratio of neighbour cells < 0.01      : 0
    faces with face twist < 0.02                           : 0
    faces on cells with determinant < 0.001                : 0

Iteration 5
Displacement scaling for error reduction set to 0.
Moving mesh using displacement scaling : min:0.237305  max:1
Checking faces in error :
    non-orthogonality > 65  degrees                        : 0
    faces with face pyramid volume < 1e-13                 : 0
    faces with face-decomposition tet quality < 1e-15      : 2
    faces with concavity > 80  degrees                     : 0
    faces with skewness > 4   (internal) or 20  (boundary) : 0
    faces with interpolation weights (0..1)  < 0.02        : 0
    faces with volume ratio of neighbour cells < 0.01      : 0
    faces with face twist < 0.02                           : 0
    faces on cells with determinant < 0.001                : 0

Iteration 6
Moving mesh using displacement scaling : min:0  max:1
Checking faces in error :
    non-orthogonality > 65  degrees                        : 0
    faces with face pyramid volume < 1e-13                 : 0
    faces with face-decomposition tet quality < 1e-15      : 0
    faces with concavity > 80  degrees                     : 0
    faces with skewness > 4   (internal) or 20  (boundary) : 0
    faces with interpolation weights (0..1)  < 0.02        : 0
    faces with volume ratio of neighbour cells < 0.01      : 0
    faces with face twist < 0.02                           : 0
    faces on cells with determinant < 0.001                : 0
Successfully moved mesh
Moved mesh in = 546.26 s



Morph iteration 8
-----------------
Calculating patchDisplacement as distance to nearest surface point ...
Wanted displacement : average:5.29096e-05 min:9.88957e-10 max:0.0347313
Calculated surface displacement in = 1.45 s


Detecting near surfaces ...
Overriding nearest with intersection of close gaps at 29 out of 716356 points.
Overriding displacement on features :
   implicit features    : false
   explicit features    : true
   multi-patch features : false

Detected 0 baffle edges out of 1432022 edges.
Initially selected 4933 points out of 716356 for reverse attraction.
Selected 13610 points out of 716356 for reverse attraction.
Stringing feature edges : changed 43 points
Stringing feature edges : changed 0 points
Attraction:
     linear   : max:(0 0.0347313 0) avg:(-6.54769e-07 2.55123e-09 2.76649e-06)
     feature  : max:(0.072376 0.0724695 0) avg:(4.51689e-07 -1.17123e-08 1.05248e-06)
Feature analysis : total master points:716356 attraction to :
    feature point   : 15
    feature edge    : 4871
    nearest surface : 0
    rest            : 711470

--> FOAM Warning : Displacement (-4.84959e-06 6.4837e-09 1.18149e-05) at mesh point 13233161 coord (-10.886 -1.27884e-05 3.28475) points through the surrounding patch faces
Smoothing displacement ...
Iteration 0
Iteration 10
Iteration 20
Displacement smoothed in = 183.39 s


Moving mesh ...

Iteration 0
Moving mesh using displacement scaling : min:1  max:1
Checking faces in error :
    non-orthogonality > 65  degrees                        : 1
    faces with face pyramid volume < 1e-13                 : 0
    faces with face-decomposition tet quality < 1e-15      : 18
    faces with concavity > 80  degrees                     : 0
    faces with skewness > 4   (internal) or 20  (boundary) : 0
    faces with interpolation weights (0..1)  < 0.02        : 0
    faces with volume ratio of neighbour cells < 0.01      : 0
    faces with face twist < 0.02                           : 1
    faces on cells with determinant < 0.001                : 0

Iteration 1
Moving mesh using displacement scaling : min:0.75  max:1
Checking faces in error :
    non-orthogonality > 65  degrees                        : 0
    faces with face pyramid volume < 1e-13                 : 0
    faces with face-decomposition tet quality < 1e-15      : 11
    faces with concavity > 80  degrees                     : 1
    faces with skewness > 4   (internal) or 20  (boundary) : 0
    faces with interpolation weights (0..1)  < 0.02        : 0
    faces with volume ratio of neighbour cells < 0.01      : 0
    faces with face twist < 0.02                           : 0
    faces on cells with determinant < 0.001                : 0

Iteration 2
Moving mesh using displacement scaling : min:0.5625  max:1
Checking faces in error :
    non-orthogonality > 65  degrees                        : 0
    faces with face pyramid volume < 1e-13                 : 0
    faces with face-decomposition tet quality < 1e-15      : 6
    faces with concavity > 80  degrees                     : 0
    faces with skewness > 4   (internal) or 20  (boundary) : 0
    faces with interpolation weights (0..1)  < 0.02        : 0
    faces with volume ratio of neighbour cells < 0.01      : 0
    faces with face twist < 0.02                           : 0
    faces on cells with determinant < 0.001                : 0

Iteration 3
Moving mesh using displacement scaling : min:0.421875  max:1
Checking faces in error :
    non-orthogonality > 65  degrees                        : 0
    faces with face pyramid volume < 1e-13                 : 0
    faces with face-decomposition tet quality < 1e-15      : 5
    faces with concavity > 80  degrees                     : 0
    faces with skewness > 4   (internal) or 20  (boundary) : 0
    faces with interpolation weights (0..1)  < 0.02        : 0
    faces with volume ratio of neighbour cells < 0.01      : 0
    faces with face twist < 0.02                           : 0
    faces on cells with determinant < 0.001                : 0

Iteration 4
Moving mesh using displacement scaling : min:0.316406  max:1
Checking faces in error :
    non-orthogonality > 65  degrees                        : 0
    faces with face pyramid volume < 1e-13                 : 0
    faces with face-decomposition tet quality < 1e-15      : 5
    faces with concavity > 80  degrees                     : 0
    faces with skewness > 4   (internal) or 20  (boundary) : 0
    faces with interpolation weights (0..1)  < 0.02        : 0
    faces with volume ratio of neighbour cells < 0.01      : 0
    faces with face twist < 0.02                           : 0
    faces on cells with determinant < 0.001                : 0

Iteration 5
Displacement scaling for error reduction set to 0.
Moving mesh using displacement scaling : min:0.237305  max:1
Checking faces in error :
    non-orthogonality > 65  degrees                        : 0
    faces with face pyramid volume < 1e-13                 : 0
    faces with face-decomposition tet quality < 1e-15      : 4
    faces with concavity > 80  degrees                     : 0
    faces with skewness > 4   (internal) or 20  (boundary) : 0
    faces with interpolation weights (0..1)  < 0.02        : 0
    faces with volume ratio of neighbour cells < 0.01      : 0
    faces with face twist < 0.02                           : 0
    faces on cells with determinant < 0.001                : 0

Iteration 6
Moving mesh using displacement scaling : min:0  max:1
Checking faces in error :
    non-orthogonality > 65  degrees                        : 0
    faces with face pyramid volume < 1e-13                 : 0
    faces with face-decomposition tet quality < 1e-15      : 0
    faces with concavity > 80  degrees                     : 0
    faces with skewness > 4   (internal) or 20  (boundary) : 0
    faces with interpolation weights (0..1)  < 0.02        : 0
    faces with volume ratio of neighbour cells < 0.01      : 0
    faces with face twist < 0.02                           : 0
    faces on cells with determinant < 0.001                : 0
Successfully moved mesh
Moved mesh in = 546.37 s



Morph iteration 9
-----------------
Calculating patchDisplacement as distance to nearest surface point ...
Wanted displacement : average:1.63674e-05 min:5.91704e-12 max:0.0151578
Calculated surface displacement in = 1.44 s


Detecting near surfaces ...
Overriding nearest with intersection of close gaps at 16 out of 716356 points.
Overriding displacement on features :
   implicit features    : false
   explicit features    : true
   multi-patch features : false

Detected 0 baffle edges out of 1432022 edges.
Initially selected 4934 points out of 716356 for reverse attraction.
Selected 13613 points out of 716356 for reverse attraction.
Stringing feature edges : changed 37 points
Stringing feature edges : changed 0 points
Attraction:
     linear   : max:(0 0.0151578 0) avg:(-3.74975e-07 8.95177e-09 -1.11029e-06)
     feature  : max:(0.0430637 0.0431194 -7.10543e-15) avg:(1.82449e-08 -2.63152e-09 2.0612e-07)
Feature analysis : total master points:716356 attraction to :
    feature point   : 15
    feature edge    : 4871
    nearest surface : 0
    rest            : 711470

--> FOAM Warning : Displacement (-2.33527e-06 -1.87323e-10 5.80668e-06) at mesh point 13233161 coord (-10.886 -1.27819e-05 3.28476) points through the surrounding patch faces
Smoothing displacement ...
Iteration 0
Iteration 10
Iteration 20
Displacement smoothed in = 180.11 s


Moving mesh ...

Iteration 0
Moving mesh using displacement scaling : min:1  max:1
Checking faces in error :
    non-orthogonality > 65  degrees                        : 4
    faces with face pyramid volume < 1e-13                 : 2
    faces with face-decomposition tet quality < 1e-15      : 33
    faces with concavity > 80  degrees                     : 0
    faces with skewness > 4   (internal) or 20  (boundary) : 0
    faces with interpolation weights (0..1)  < 0.02        : 0
    faces with volume ratio of neighbour cells < 0.01      : 0
    faces with face twist < 0.02                           : 1
    faces on cells with determinant < 0.001                : 0

Iteration 1
Moving mesh using displacement scaling : min:0.75  max:1
Checking faces in error :
    non-orthogonality > 65  degrees                        : 1
    faces with face pyramid volume < 1e-13                 : 1
    faces with face-decomposition tet quality < 1e-15      : 30
    faces with concavity > 80  degrees                     : 0
    faces with skewness > 4   (internal) or 20  (boundary) : 0
    faces with interpolation weights (0..1)  < 0.02        : 0
    faces with volume ratio of neighbour cells < 0.01      : 0
    faces with face twist < 0.02                           : 0
    faces on cells with determinant < 0.001                : 0

Iteration 2
Moving mesh using displacement scaling : min:0.5625  max:1
Checking faces in error :
    non-orthogonality > 65  degrees                        : 0
    faces with face pyramid volume < 1e-13                 : 0
    faces with face-decomposition tet quality < 1e-15      : 26
    faces with concavity > 80  degrees                     : 1
    faces with skewness > 4   (internal) or 20  (boundary) : 0
    faces with interpolation weights (0..1)  < 0.02        : 0
    faces with volume ratio of neighbour cells < 0.01      : 0
    faces with face twist < 0.02                           : 0
    faces on cells with determinant < 0.001                : 0

Iteration 3
Moving mesh using displacement scaling : min:0.421875  max:1
Checking faces in error :
    non-orthogonality > 65  degrees                        : 0
    faces with face pyramid volume < 1e-13                 : 0
    faces with face-decomposition tet quality < 1e-15      : 20
    faces with concavity > 80  degrees                     : 0
    faces with skewness > 4   (internal) or 20  (boundary) : 0
    faces with interpolation weights (0..1)  < 0.02        : 0
    faces with volume ratio of neighbour cells < 0.01      : 0
    faces with face twist < 0.02                           : 0
    faces on cells with determinant < 0.001                : 0

Iteration 4
Moving mesh using displacement scaling : min:0.316406  max:1
Checking faces in error :
    non-orthogonality > 65  degrees                        : 0
    faces with face pyramid volume < 1e-13                 : 0
    faces with face-decomposition tet quality < 1e-15      : 16
    faces with concavity > 80  degrees                     : 0
    faces with skewness > 4   (internal) or 20  (boundary) : 0
    faces with interpolation weights (0..1)  < 0.02        : 0
    faces with volume ratio of neighbour cells < 0.01      : 0
    faces with face twist < 0.02                           : 0
    faces on cells with determinant < 0.001                : 0

Iteration 5
Displacement scaling for error reduction set to 0.
Moving mesh using displacement scaling : min:0.237305  max:1
Checking faces in error :
    non-orthogonality > 65  degrees                        : 0
    faces with face pyramid volume < 1e-13                 : 0
    faces with face-decomposition tet quality < 1e-15      : 6
    faces with concavity > 80  degrees                     : 0
    faces with skewness > 4   (internal) or 20  (boundary) : 0
    faces with interpolation weights (0..1)  < 0.02        : 0
    faces with volume ratio of neighbour cells < 0.01      : 0
    faces with face twist < 0.02                           : 1
    faces on cells with determinant < 0.001                : 0

Iteration 6
Moving mesh using displacement scaling : min:0  max:1
Checking faces in error :
    non-orthogonality > 65  degrees                        : 0
    faces with face pyramid volume < 1e-13                 : 0
    faces with face-decomposition tet quality < 1e-15      : 0
    faces with concavity > 80  degrees                     : 0
    faces with skewness > 4   (internal) or 20  (boundary) : 0
    faces with interpolation weights (0..1)  < 0.02        : 0
    faces with volume ratio of neighbour cells < 0.01      : 0
    faces with face twist < 0.02                           : 0
    faces on cells with determinant < 0.001                : 0
Successfully moved mesh
Moved mesh in = 546.69 s


Repatching faces according to nearest surface ...
Repatched 0 faces in = 4.69 s


Edge intersection testing:
    Number of edges             : 108739794
    Number of edges to retest   : 3723027
    Number of intersected edges : 715668
Merging 19929 sets of faces.

Edge intersection testing:
    Number of edges             : 108718118
    Number of edges to retest   : 79854
    Number of intersected edges : 693992

Undo iteration 0
----------------
Checking faces in error :
    non-orthogonality > 65  degrees                        : 0
    faces with face pyramid volume < 1e-13                 : 0
    faces with face-decomposition tet quality < 1e-15      : 0
    faces with concavity > 80  degrees                     : 0
    faces with skewness > 4   (internal) or 20  (boundary) : 0
    faces with interpolation weights (0..1)  < 0.02        : 0
    faces with volume ratio of neighbour cells < 0.01      : 0
    faces with face twist < 0.02                           : 0
    faces on cells with determinant < 0.001                : 0

Merging all points on surface that
- are used by only two boundary faces and
- make an angle with a cosine of more than 0.965926.

Removing 18054 straight edge points ...

Edge intersection testing:
    Number of edges             : 108718118
    Number of edges to retest   : 76620
    Number of intersected edges : 693992

Undo iteration 0
----------------
Checking faces in error :
    non-orthogonality > 65  degrees                        : 0
    faces with face pyramid volume < 1e-13                 : 0
    faces with face-decomposition tet quality < 1e-15      : 0
    faces with concavity > 80  degrees                     : 0
    faces with skewness > 4   (internal) or 20  (boundary) : 0
    faces with interpolation weights (0..1)  < 0.02        : 0
    faces with volume ratio of neighbour cells < 0.01      : 0
    faces with face twist < 0.02                           : 0
    faces on cells with determinant < 0.001                : 0
Snapped mesh : cells:35847225  faces:108718118  points:37027195
Cells per refinement level:
    0	104410
    1	444304
    2	910720
    3	3142144
    4	13655298
    5	11720442
    6	5869907
Writing mesh to time 2
Wrote mesh in = 588.68 s.
Mesh snapped in = 6553.77 s.

Shrinking and layer addition phase
----------------------------------

Using mesh parameters 
{
    maxNonOrtho     65;
    maxBoundarySkewness 20;
    maxInternalSkewness 4;
    maxConcave      80;
    minVol          1e-13;
    minTetQuality   1e-15;
    minArea         -1;
    minTwist        0.02;
    minDeterminant  0.001;
    minFaceWeight   0.02;
    minVolRatio     0.01;
    minTriangleTwist -1;
    nSmoothScale    4;
    errorReduction  0.75;
}



Merging all faces of a cell
---------------------------
    - which are on the same patch
    - which make an angle < 60 degrees
      (cos:0.5)
    - as long as the resulting face doesn't become concave by more than 90 degrees
      (0=straight, 180=fully concave)

Merging 75 sets of faces.

Edge intersection testing:
    Number of edges             : 108718040
    Number of edges to retest   : 316
    Number of intersected edges : 693912

Undo iteration 0
----------------
Checking faces in error :
    non-orthogonality > 65  degrees                        : 0
    faces with face pyramid volume < 1e-13                 : 0
    faces with face-decomposition tet quality < 1e-15      : 12
    faces with concavity > 80  degrees                     : 0
    faces with skewness > 4   (internal) or 20  (boundary) : 0
    faces with interpolation weights (0..1)  < 0.02        : 0
    faces with volume ratio of neighbour cells < 0.01      : 0
    faces with face twist < 0.02                           : 0
    faces on cells with determinant < 0.001                : 0
Masters that need to be restored:12
Edge intersection testing:
    Number of edges             : 108718052
    Number of edges to retest   : 72
    Number of intersected edges : 693924


Undo iteration 1
----------------
Checking faces in error :
    non-orthogonality > 65  degrees                        : 0
    faces with face pyramid volume < 1e-13                 : 0
    faces with face-decomposition tet quality < 1e-15      : 0
    faces with concavity > 80  degrees                     : 0
    faces with skewness > 4   (internal) or 20  (boundary) : 0
    faces with interpolation weights (0..1)  < 0.02        : 0
    faces with volume ratio of neighbour cells < 0.01      : 0
    faces with face twist < 0.02                           : 0
    faces on cells with determinant < 0.001                : 0

Merging all points on surface that
- are used by only two boundary faces and
- make an angle with a cosine of more than 0.5.

Removing 54 straight edge points ...

Edge intersection testing:
    Number of edges             : 108718052
    Number of edges to retest   : 319
    Number of intersected edges : 693900

Undo iteration 0
----------------
Checking faces in error :
    non-orthogonality > 65  degrees                        : 0
    faces with face pyramid volume < 1e-13                 : 0
    faces with face-decomposition tet quality < 1e-15      : 0
    faces with concavity > 80  degrees                     : 0
    faces with skewness > 4   (internal) or 20  (boundary) : 0
    faces with interpolation weights (0..1)  < 0.02        : 0
    faces with volume ratio of neighbour cells < 0.01      : 0
    faces with face twist < 0.02                           : 1
    faces on cells with determinant < 0.001                : 0
Detected 1 error faces on boundaries that have been merged. These will be restored to their original faces.

Edge intersection testing:
    Number of edges             : 108718052
    Number of edges to retest   : 5
    Number of intersected edges : 693900

Undo iteration 1
----------------
Checking faces in error :
    non-orthogonality > 65  degrees                        : 0
    faces with face pyramid volume < 1e-13                 : 0
    faces with face-decomposition tet quality < 1e-15      : 0
    faces with concavity > 80  degrees                     : 0
    faces with skewness > 4   (internal) or 20  (boundary) : 0
    faces with interpolation weights (0..1)  < 0.02        : 0
    faces with volume ratio of neighbour cells < 0.01      : 0
    faces with face twist < 0.02                           : 0
    faces on cells with determinant < 0.001                : 0

Checking mesh manifoldness ...

Checking initial mesh ...
Checking faces in error :
    non-orthogonality > 65  degrees                        : 0
    faces with face pyramid volume < 1e-13                 : 0
    faces with face-decomposition tet quality < 1e-15      : 0
    faces with concavity > 80  degrees                     : 0
    faces with skewness > 4   (internal) or 20  (boundary) : 0
    faces with interpolation weights (0..1)  < 0.02        : 0
    faces with volume ratio of neighbour cells < 0.01      : 0
    faces with face twist < 0.02                           : 0
    faces on cells with determinant < 0.001                : 0
Detected 0 illegal faces (concave, zero area or negative cell pyramid volume)

Adding in total 0 inter-processor patches to handle extrusion of non-manifold processor boundaries.

Handling points with inconsistent layer specification ...

Handling non-manifold points ...

Checking patch manifoldness ...
Outside of local patch is multiply connected across edges or points at 0 points.
Set displacement to zero for all 0 non-manifold points

Handling feature edges ...

Handling cells with warped patch faces ...
Set displacement to zero on 6 warped faces since layer would be > 0.5 of the size of the bounding box.

patch    faces    layers avg thickness[m]
                         near-wall overall
-----    -----    ------ --------- -------
gtsModel 665492   10     0.000906  0.0235  

Selecting externalDisplacementMeshMover displacementMedialAxis
displacementMedialAxis : Calculating distance to Medial Axis ...
displacementMedialAxis : Smoothing normals ...
    Iteration 0   residual 0.00302945
displacementMedialAxis : Inserting points on patch frontAndBack if angle to nearest layer patch > 30 degrees.
displacementMedialAxis : Inserting points on patch inletBB if angle to nearest layer patch > 30 degrees.
displacementMedialAxis : Inserting points on patch outletBB if angle to nearest layer patch > 30 degrees.
displacementMedialAxis : Inserting points on patch lowerWallBB if angle to nearest layer patch > 30 degrees.
displacementMedialAxis : Inserting points on patch upperWallBB if angle to nearest layer patch > 30 degrees.
displacementMedialAxis : Inserting points on patch inlet if angle to nearest layer patch > 30 degrees.
displacementMedialAxis : Inserting points on patch outlet if angle to nearest layer patch > 30 degrees.
displacementMedialAxis : Inserting points on patch lateral if angle to nearest layer patch > 30 degrees.
displacementMedialAxis : Inserting points on patch top if angle to nearest layer patch > 30 degrees.
displacementMedialAxis : Inserting points on patch bottomNoSlip if angle to nearest layer patch > 30 degrees.
displacementMedialAxis : Inserting points on patch bottomSlip if angle to nearest layer patch > 30 degrees.
displacementMedialAxis : Smoothing normals in interior ...
    Iteration 0   residual 0.0118696

Layer addition iteration 0
--------------------------

Determining displacement for added points according to pointNormal ...
Detected 0 points with point normal pointing through faces.
Reset displacement at 0 points to average of surrounding points.

displacementMedialAxis : Smoothing using Medial Axis ...
displacementMedialAxis : Reducing layer thickness at 0 nodes where thickness to medial axis distance is large 
displacementMedialAxis : Removing isolated regions ...
displacementMedialAxis : Number of isolated points extrusion stopped : 16
displacementMedialAxis : Smoothing field ...
    Iteration 0   residual 1.68944e-07
displacementMedialAxis : Moving mesh ...
displacementMedialAxis : Iteration 0
Moving mesh using displacement scaling : min:1  max:1
Checking faces in error :
    non-orthogonality > 65  degrees                        : 4
    faces with face pyramid volume < 1e-13                 : 0
    faces with face-decomposition tet quality < 1e-15      : 42
    faces with concavity > 80  degrees                     : 2
    faces with skewness > 4   (internal) or 20  (boundary) : 0
    faces with interpolation weights (0..1)  < 0.02        : 0
    faces with volume ratio of neighbour cells < 0.01      : 0
    faces with face twist < 0.02                           : 0
    faces on cells with determinant < 0.001                : 0
displacementMedialAxis : Iteration 1
Moving mesh using displacement scaling : min:0.75  max:1
Checking faces in error :
    non-orthogonality > 65  degrees                        : 0
    faces with face pyramid volume < 1e-13                 : 0
    faces with face-decomposition tet quality < 1e-15      : 36
    faces with concavity > 80  degrees                     : 0
    faces with skewness > 4   (internal) or 20  (boundary) : 0
    faces with interpolation weights (0..1)  < 0.02        : 0
    faces with volume ratio of neighbour cells < 0.01      : 0
    faces with face twist < 0.02                           : 1
    faces on cells with determinant < 0.001                : 0
displacementMedialAxis : Iteration 2
Moving mesh using displacement scaling : min:0.5625  max:1
Checking faces in error :
    non-orthogonality > 65  degrees                        : 0
    faces with face pyramid volume < 1e-13                 : 0
    faces with face-decomposition tet quality < 1e-15      : 27
    faces with concavity > 80  degrees                     : 0
    faces with skewness > 4   (internal) or 20  (boundary) : 0
    faces with interpolation weights (0..1)  < 0.02        : 0
    faces with volume ratio of neighbour cells < 0.01      : 0
    faces with face twist < 0.02                           : 1
    faces on cells with determinant < 0.001                : 0
displacementMedialAxis : Iteration 3
displacementMedialAxis : Displacement scaling for error reduction set to 0.
Moving mesh using displacement scaling : min:0.421875  max:1
Checking faces in error :
    non-orthogonality > 65  degrees                        : 0
    faces with face pyramid volume < 1e-13                 : 0
    faces with face-decomposition tet quality < 1e-15      : 17
    faces with concavity > 80  degrees                     : 0
    faces with skewness > 4   (internal) or 20  (boundary) : 0
    faces with interpolation weights (0..1)  < 0.02        : 0
    faces with volume ratio of neighbour cells < 0.01      : 0
    faces with face twist < 0.02                           : 0
    faces on cells with determinant < 0.001                : 0
displacementMedialAxis : Iteration 4
Moving mesh using displacement scaling : min:0  max:1
Checking faces in error :
    non-orthogonality > 65  degrees                        : 0
    faces with face pyramid volume < 1e-13                 : 0
    faces with face-decomposition tet quality < 1e-15      : 0
    faces with concavity > 80  degrees                     : 0
    faces with skewness > 4   (internal) or 20  (boundary) : 0
    faces with interpolation weights (0..1)  < 0.02        : 0
    faces with volume ratio of neighbour cells < 0.01      : 0
    faces with face twist < 0.02                           : 0
    faces on cells with determinant < 0.001                : 0
displacementMedialAxis : Successfully moved mesh
displacementMedialAxis : Finished moving mesh ...
truncateDisplacement : Unextruded 0 faces due to non-consecutive vertices being extruded.
truncateDisplacement : Unextruded 0 faces due to stringed edges with inconsistent extrusion.

Setting up information for layer truncation ...

Checking mesh with layer ...
Checking faces in error :
    non-orthogonality > 65  degrees                        : 6
    faces with face pyramid volume < 1e-13                 : 0
    faces with face-decomposition tet quality < 1e-15      : 246
    faces with concavity > 80  degrees                     : 0
    faces with skewness > 4   (internal) or 20  (boundary) : 0
    faces with interpolation weights (0..1)  < 0.02        : 0
    faces with volume ratio of neighbour cells < 0.01      : 0
    faces with face twist < 0.02                           : 0
    faces on cells with determinant < 0.001                : 0
Detected 252 illegal faces (concave, zero area or negative cell pyramid volume)
Extruding 665367 out of 665492 faces (99.9812%). Removed extrusion at 67 faces.
Added 6638064 out of 6654920 cells (99.7467%).


Layer addition iteration 1
--------------------------

Determining displacement for added points according to pointNormal ...
Detected 0 points with point normal pointing through faces.
Reset displacement at 0 points to average of surrounding points.

displacementMedialAxis : Smoothing using Medial Axis ...
displacementMedialAxis : Reducing layer thickness at 0 nodes where thickness to medial axis distance is large 
displacementMedialAxis : Removing isolated regions ...
displacementMedialAxis : Number of isolated points extrusion stopped : 156
displacementMedialAxis : Smoothing field ...
    Iteration 0   residual 2.63362e-06
displacementMedialAxis : Moving mesh ...
displacementMedialAxis : Iteration 0
Moving mesh using displacement scaling : min:1  max:1
Checking faces in error :
    non-orthogonality > 65  degrees                        : 254
    faces with face pyramid volume < 1e-13                 : 0
    faces with face-decomposition tet quality < 1e-15      : 167
    faces with concavity > 80  degrees                     : 0
    faces with skewness > 4   (internal) or 20  (boundary) : 0
    faces with interpolation weights (0..1)  < 0.02        : 7
    faces with volume ratio of neighbour cells < 0.01      : 2
    faces with face twist < 0.02                           : 0
    faces on cells with determinant < 0.001                : 58
displacementMedialAxis : Iteration 1
Moving mesh using displacement scaling : min:0.75  max:1
Checking faces in error :
    non-orthogonality > 65  degrees                        : 8
    faces with face pyramid volume < 1e-13                 : 0
    faces with face-decomposition tet quality < 1e-15      : 8
    faces with concavity > 80  degrees                     : 0
    faces with skewness > 4   (internal) or 20  (boundary) : 0
    faces with interpolation weights (0..1)  < 0.02        : 0
    faces with volume ratio of neighbour cells < 0.01      : 0
    faces with face twist < 0.02                           : 0
    faces on cells with determinant < 0.001                : 0
displacementMedialAxis : Iteration 2
Moving mesh using displacement scaling : min:0.5625  max:1
Checking faces in error :
    non-orthogonality > 65  degrees                        : 0
    faces with face pyramid volume < 1e-13                 : 0
    faces with face-decomposition tet quality < 1e-15      : 4
    faces with concavity > 80  degrees                     : 0
    faces with skewness > 4   (internal) or 20  (boundary) : 0
    faces with interpolation weights (0..1)  < 0.02        : 0
    faces with volume ratio of neighbour cells < 0.01      : 0
    faces with face twist < 0.02                           : 0
    faces on cells with determinant < 0.001                : 0
displacementMedialAxis : Iteration 3
displacementMedialAxis : Displacement scaling for error reduction set to 0.
Moving mesh using displacement scaling : min:0.421875  max:1
Checking faces in error :
    non-orthogonality > 65  degrees                        : 0
    faces with face pyramid volume < 1e-13                 : 0
    faces with face-decomposition tet quality < 1e-15      : 4
    faces with concavity > 80  degrees                     : 0
    faces with skewness > 4   (internal) or 20  (boundary) : 0
    faces with interpolation weights (0..1)  < 0.02        : 0
    faces with volume ratio of neighbour cells < 0.01      : 0
    faces with face twist < 0.02                           : 0
    faces on cells with determinant < 0.001                : 0
displacementMedialAxis : Iteration 4
Moving mesh using displacement scaling : min:0  max:1
Checking faces in error :
    non-orthogonality > 65  degrees                        : 0
    faces with face pyramid volume < 1e-13                 : 0
    faces with face-decomposition tet quality < 1e-15      : 0
    faces with concavity > 80  degrees                     : 0
    faces with skewness > 4   (internal) or 20  (boundary) : 0
    faces with interpolation weights (0..1)  < 0.02        : 0
    faces with volume ratio of neighbour cells < 0.01      : 0
    faces with face twist < 0.02                           : 0
    faces on cells with determinant < 0.001                : 0
displacementMedialAxis : Successfully moved mesh
displacementMedialAxis : Finished moving mesh ...
truncateDisplacement : Unextruded 0 faces due to non-consecutive vertices being extruded.
truncateDisplacement : Unextruded 0 faces due to stringed edges with inconsistent extrusion.

Setting up information for layer truncation ...

Checking mesh with layer ...
Checking faces in error :
    non-orthogonality > 65  degrees                        : 0
    faces with face pyramid volume < 1e-13                 : 0
    faces with face-decomposition tet quality < 1e-15      : 12
    faces with concavity > 80  degrees                     : 0
    faces with skewness > 4   (internal) or 20  (boundary) : 0
    faces with interpolation weights (0..1)  < 0.02        : 0
    faces with volume ratio of neighbour cells < 0.01      : 0
    faces with face twist < 0.02                           : 0
    faces on cells with determinant < 0.001                : 0
Detected 12 illegal faces (concave, zero area or negative cell pyramid volume)
Extruding 665303 out of 665492 faces (99.9716%). Removed extrusion at 8 faces.
Added 6617937 out of 6654920 cells (99.4443%).


Layer addition iteration 2
--------------------------

Determining displacement for added points according to pointNormal ...
Detected 0 points with point normal pointing through faces.
Reset displacement at 0 points to average of surrounding points.

displacementMedialAxis : Smoothing using Medial Axis ...
displacementMedialAxis : Reducing layer thickness at 0 nodes where thickness to medial axis distance is large 
displacementMedialAxis : Removing isolated regions ...
displacementMedialAxis : Number of isolated points extrusion stopped : 164
displacementMedialAxis : Smoothing field ...
    Iteration 0   residual 3.48478e-06
displacementMedialAxis : Moving mesh ...
displacementMedialAxis : Iteration 0
Moving mesh using displacement scaling : min:1  max:1
Checking faces in error :
    non-orthogonality > 65  degrees                        : 419
    faces with face pyramid volume < 1e-13                 : 0
    faces with face-decomposition tet quality < 1e-15      : 187
    faces with concavity > 80  degrees                     : 0
    faces with skewness > 4   (internal) or 20  (boundary) : 0
    faces with interpolation weights (0..1)  < 0.02        : 6
    faces with volume ratio of neighbour cells < 0.01      : 3
    faces with face twist < 0.02                           : 0
    faces on cells with determinant < 0.001                : 48
displacementMedialAxis : Iteration 1
Moving mesh using displacement scaling : min:0.75  max:1
Checking faces in error :
    non-orthogonality > 65  degrees                        : 28
    faces with face pyramid volume < 1e-13                 : 0
    faces with face-decomposition tet quality < 1e-15      : 2
    faces with concavity > 80  degrees                     : 0
    faces with skewness > 4   (internal) or 20  (boundary) : 0
    faces with interpolation weights (0..1)  < 0.02        : 0
    faces with volume ratio of neighbour cells < 0.01      : 0
    faces with face twist < 0.02                           : 0
    faces on cells with determinant < 0.001                : 0
displacementMedialAxis : Iteration 2
Moving mesh using displacement scaling : min:0.5625  max:1
Checking faces in error :
    non-orthogonality > 65  degrees                        : 2
    faces with face pyramid volume < 1e-13                 : 0
    faces with face-decomposition tet quality < 1e-15      : 0
    faces with concavity > 80  degrees                     : 0
    faces with skewness > 4   (internal) or 20  (boundary) : 0
    faces with interpolation weights (0..1)  < 0.02        : 0
    faces with volume ratio of neighbour cells < 0.01      : 0
    faces with face twist < 0.02                           : 0
    faces on cells with determinant < 0.001                : 0
displacementMedialAxis : Iteration 3
displacementMedialAxis : Displacement scaling for error reduction set to 0.
Moving mesh using displacement scaling : min:0.556827  max:1
Checking faces in error :
    non-orthogonality > 65  degrees                        : 0
    faces with face pyramid volume < 1e-13                 : 0
    faces with face-decomposition tet quality < 1e-15      : 0
    faces with concavity > 80  degrees                     : 0
    faces with skewness > 4   (internal) or 20  (boundary) : 0
    faces with interpolation weights (0..1)  < 0.02        : 0
    faces with volume ratio of neighbour cells < 0.01      : 0
    faces with face twist < 0.02                           : 0
    faces on cells with determinant < 0.001                : 0
displacementMedialAxis : Successfully moved mesh
displacementMedialAxis : Finished moving mesh ...
truncateDisplacement : Unextruded 0 faces due to non-consecutive vertices being extruded.
truncateDisplacement : Unextruded 0 faces due to stringed edges with inconsistent extrusion.

Setting up information for layer truncation ...

Checking mesh with layer ...
Checking faces in error :
    non-orthogonality > 65  degrees                        : 0
    faces with face pyramid volume < 1e-13                 : 0
    faces with face-decomposition tet quality < 1e-15      : 3
    faces with concavity > 80  degrees                     : 0
    faces with skewness > 4   (internal) or 20  (boundary) : 0
    faces with interpolation weights (0..1)  < 0.02        : 0
    faces with volume ratio of neighbour cells < 0.01      : 0
    faces with face twist < 0.02                           : 0
    faces on cells with determinant < 0.001                : 0
Detected 3 illegal faces (concave, zero area or negative cell pyramid volume)
Extruding 665236 out of 665492 faces (99.9615%). Removed extrusion at 3 faces.
Added 6614040 out of 6654920 cells (99.3857%).


Layer addition iteration 3
--------------------------

Determining displacement for added points according to pointNormal ...
Detected 0 points with point normal pointing through faces.
Reset displacement at 0 points to average of surrounding points.

displacementMedialAxis : Smoothing using Medial Axis ...
displacementMedialAxis : Reducing layer thickness at 0 nodes where thickness to medial axis distance is large 
displacementMedialAxis : Removing isolated regions ...
displacementMedialAxis : Number of isolated points extrusion stopped : 4
displacementMedialAxis : Smoothing field ...
    Iteration 0   residual 3.51317e-06
displacementMedialAxis : Moving mesh ...
displacementMedialAxis : Iteration 0
Moving mesh using displacement scaling : min:1  max:1
Checking faces in error :
    non-orthogonality > 65  degrees                        : 419
    faces with face pyramid volume < 1e-13                 : 0
    faces with face-decomposition tet quality < 1e-15      : 184
    faces with concavity > 80  degrees                     : 0
    faces with skewness > 4   (internal) or 20  (boundary) : 0
    faces with interpolation weights (0..1)  < 0.02        : 6
    faces with volume ratio of neighbour cells < 0.01      : 3
    faces with face twist < 0.02                           : 0
    faces on cells with determinant < 0.001                : 48
displacementMedialAxis : Iteration 1
Moving mesh using displacement scaling : min:0.75  max:1
Checking faces in error :
    non-orthogonality > 65  degrees                        : 28
    faces with face pyramid volume < 1e-13                 : 0
    faces with face-decomposition tet quality < 1e-15      : 2
    faces with concavity > 80  degrees                     : 0
    faces with skewness > 4   (internal) or 20  (boundary) : 0
    faces with interpolation weights (0..1)  < 0.02        : 0
    faces with volume ratio of neighbour cells < 0.01      : 0
    faces with face twist < 0.02                           : 0
    faces on cells with determinant < 0.001                : 0
displacementMedialAxis : Iteration 2
Moving mesh using displacement scaling : min:0.5625  max:1
Checking faces in error :
    non-orthogonality > 65  degrees                        : 2
    faces with face pyramid volume < 1e-13                 : 0
    faces with face-decomposition tet quality < 1e-15      : 0
    faces with concavity > 80  degrees                     : 0
    faces with skewness > 4   (internal) or 20  (boundary) : 0
    faces with interpolation weights (0..1)  < 0.02        : 0
    faces with volume ratio of neighbour cells < 0.01      : 0
    faces with face twist < 0.02                           : 0
    faces on cells with determinant < 0.001                : 0
displacementMedialAxis : Iteration 3
displacementMedialAxis : Displacement scaling for error reduction set to 0.
Moving mesh using displacement scaling : min:0.556827  max:1
Checking faces in error :
    non-orthogonality > 65  degrees                        : 0
    faces with face pyramid volume < 1e-13                 : 0
    faces with face-decomposition tet quality < 1e-15      : 0
    faces with concavity > 80  degrees                     : 0
    faces with skewness > 4   (internal) or 20  (boundary) : 0
    faces with interpolation weights (0..1)  < 0.02        : 0
    faces with volume ratio of neighbour cells < 0.01      : 0
    faces with face twist < 0.02                           : 0
    faces on cells with determinant < 0.001                : 0
displacementMedialAxis : Successfully moved mesh
displacementMedialAxis : Finished moving mesh ...
truncateDisplacement : Unextruded 0 faces due to non-consecutive vertices being extruded.
truncateDisplacement : Unextruded 0 faces due to stringed edges with inconsistent extrusion.

Setting up information for layer truncation ...

Checking mesh with layer ...
Checking faces in error :
    non-orthogonality > 65  degrees                        : 0
    faces with face pyramid volume < 1e-13                 : 0
    faces with face-decomposition tet quality < 1e-15      : 0
    faces with concavity > 80  degrees                     : 0
    faces with skewness > 4   (internal) or 20  (boundary) : 0
    faces with interpolation weights (0..1)  < 0.02        : 0
    faces with volume ratio of neighbour cells < 0.01      : 0
    faces with face twist < 0.02                           : 0
    faces on cells with determinant < 0.001                : 0
Detected 0 illegal faces (concave, zero area or negative cell pyramid volume)
Extruding 665236 out of 665492 faces (99.9615%). Removed extrusion at 0 faces.
Added 6613668 out of 6654920 cells (99.3801%).
Edge intersection testing:
    Number of edges             : 128580910
    Number of edges to retest   : 0
    Number of intersected edges : 7307555
Writing 6613668 added cells to cellSet addedCells
Writing 5948432 faces inside added layer to faceSet layerFaces

Writing fields with layer information:
    nSurfaceLayers    : actual number of layers
    thickness         : overall layer thickness
    thicknessFraction : overall layer thickness (fraction of desired thickness)


patch    faces    layers   overall thickness
                           [m]       [%]
-----    -----    ------   ---       ---
gtsModel 665492   9.94     0.0235    99.8    


Removing zero-sized patches:
    frontAndBack type patch at position 0
    inletBB type patch at position 1
    outletBB type patch at position 2
    top type patch at position 9
    bottomNoSlip type wall at position 10
    bottomSlip type wall at position 11

Layer mesh : cells:42460893  faces:128580910  points:43662633
Cells per refinement level:
    0	104410
    1	444304
    2	910720
    3	3142144
    4	13655298
    5	11720442
    6	12483575
Writing mesh to time 3
Wrote mesh in = 4632.92 s.
Layers added in = 4632.92 s.
Checking final mesh ...
Checking faces in error :
    non-orthogonality > 65  degrees                        : 0
    faces with face pyramid volume < 1e-13                 : 0
    faces with face-decomposition tet quality < 1e-15      : 0
    faces with concavity > 80  degrees                     : 0
    faces with skewness > 4   (internal) or 20  (boundary) : 0
    faces with interpolation weights (0..1)  < 0.02        : 0
    faces with volume ratio of neighbour cells < 0.01      : 0
    faces with face twist < 0.02                           : 0
    faces on cells with determinant < 0.001                : 0
Finished meshing without any errors
Finished meshing in = 15268.3 s.
End

