/*---------------------------------------------------------------------------*\
  =========                 |
  \\      /  F ield         | OpenFOAM: The Open Source CFD Toolbox
   \\    /   O peration     | Website:  https://openfoam.org
    \\  /    A nd           | Version:  7
     \\/     M anipulation  |
\*---------------------------------------------------------------------------*/
Build  : 7
Exec   : snappyHexMesh
Date   : Jul 21 2022
Time   : 12:23:50
Host   : "compute-0-14.local"
PID    : 137971
I/O    : uncollated
Case   : /share/storage/finzeo/gts_converted8_floorTreatment
nProcs : 1
sigFpe : Enabling floating point exception trapping (FOAM_SIGFPE).
fileModificationChecking : Monitoring run-time modified files using timeStampMaster (fileModificationSkew 10)
allowSystemOperations : Allowing user-supplied system call operations

// * * * * * * * * * * * * * * * * * * * * * * * * * * * * * * * * * * * * * //
Create time

Create mesh for time = 0

Read mesh in = 0.04 s

Overall mesh bounding box  : (-38.8 -19 -1.504) (118 19 33.096)
Relative tolerance         : 1e-06
Absolute matching distance : 0.000165007

Reading refinement surfaces.


--> FOAM FATAL ERROR: 
size 0 != 2

    From function void Foam::FixedList<T, Size>::checkSize(Foam::label) const [with T = int; unsigned int Size = 2u; Foam::label = int]
    in file /share/apps/OpenFOAM/OpenFOAM-7/src/OpenFOAM/lnInclude/FixedListI.H at line 155.

FOAM aborting

#0  Foam::error::printStack(Foam::Ostream&) at ??:?
#1  Foam::error::abort() at ??:?
#2  Foam::Istream& Foam::operator>><int, 2u>(Foam::Istream&, Foam::FixedList<int, 2u>&) at ??:?
#3  Foam::refinementSurfaces::refinementSurfaces(Foam::searchableSurfaces const&, Foam::dictionary const&, int) at ??:?
#4  ? at ??:?
#5  __libc_start_main in "/lib64/libc.so.6"
#6  ? at ??:?
/var/spool/slurmd/job138145/slurm_script: line 12: 137971 Aborted                 snappyHexMesh
