/*---------------------------------------------------------------------------*\
  =========                 |
  \\      /  F ield         | OpenFOAM: The Open Source CFD Toolbox
   \\    /   O peration     | Website:  https://openfoam.org
    \\  /    A nd           | Version:  7
     \\/     M anipulation  |
\*---------------------------------------------------------------------------*/
Build  : 7
Exec   : snappyHexMesh
Date   : Aug 12 2022
Time   : 13:49:44
Host   : "compute-0-7.local"
PID    : 13513
I/O    : uncollated
Case   : /share/storage/finzeo/Mallas/GTS_Tunay/gts_converted22
nProcs : 1
sigFpe : Enabling floating point exception trapping (FOAM_SIGFPE).
fileModificationChecking : Monitoring run-time modified files using timeStampMaster (fileModificationSkew 10)
allowSystemOperations : Allowing user-supplied system call operations

// * * * * * * * * * * * * * * * * * * * * * * * * * * * * * * * * * * * * * //
Create time

Create mesh for time = 0

Read mesh in = 0.09 s

Overall mesh bounding box  : (-37.8 -18 -0.504) (117 18 32.4)
Relative tolerance         : 1e-06
Absolute matching distance : 0.000162301

Reading refinement surfaces.
Read refinement surfaces in = 5.02 s

Reading refinement shells.
Refinement level 1 for all cells inside refinementBox1
Refinement level 2 for all cells inside refinementBox2
Refinement level 3 for all cells inside refinementBox3
Refinement level 4 for all cells inside refinementBox4
Refinement level 5 for all cells inside refinementBox5
Refinement level 6 for all cells inside refinementBox6
Read refinement shells in = 0 s

Setting refinement level of surface to be consistent with shells.
Checked shell refinement in = 0 s

Reading features.
Read edgeMesh vehicleSurfaceMesh.eMesh
    points      : 4026
    edges       : 4026
    boundingBox : (-12.185 -1.3 0) (0 1.3 3.6)

Refinement level according to distance to "vehicleSurfaceMesh.eMesh" (4026 points, 4026 edges).
    level 6 for all cells within 0 metre.
Read edgeMesh topMesh.eMesh
    points      : 424
    edges       : 424
    boundingBox : (-37.8 -18 32.4) (117 18 32.4)

Refinement level according to distance to "topMesh.eMesh" (424 points, 424 edges).
    level 3 for all cells within 0 metre.
Read edgeMesh inletMesh.eMesh
    points      : 460
    edges       : 460
    boundingBox : (-37.8 -18 -0.504) (-37.8 18 32.4)

Refinement level according to distance to "inletMesh.eMesh" (460 points, 460 edges).
    level 3 for all cells within 0 metre.
Read edgeMesh outletMesh.eMesh
    points      : 460
    edges       : 460
    boundingBox : (117 -18 -0.504) (117 18 32.4)

Refinement level according to distance to "outletMesh.eMesh" (460 points, 460 edges).
    level 3 for all cells within 0 metre.
Read edgeMesh lateralMesh.eMesh
    points      : 836
    edges       : 836
    boundingBox : (-37.8 -18 -0.504) (117 18 32.4)

Refinement level according to distance to "lateralMesh.eMesh" (836 points, 836 edges).
    level 3 for all cells within 0 metre.
Read features in = 0.01 s


Determining initial surface intersections
-----------------------------------------

Edge intersection testing:
    Number of edges             : 564303
    Number of edges to retest   : 564303
    Number of intersected edges : 12738
Calculated surface intersections in = 4.12 s

Initial mesh : cells:184140  faces:564303  points:196248
Cells per refinement level:
    0	184140

Adding patches for surface regions
----------------------------------

Patch Type                Region                        
----- ----                ------                        
gtsModel:

5     wall                gtsModel                      

inlet:

6     patch               inlet                         

outlet:

7     patch               outlet                        

lateral:

8     patch               lateral                       

top:

9     patch               top                           

bottomNoSlip:

10    wall                bottomNoSlip                  

bottomSlip:

11    wall                bottomSlip                    

Added patches in = 0.01 s

 Foam::decompositionMethod::New 
{
    method          none;
    numberOfSubdomains 1;
}

Selecting decompositionMethod none
Layer thickness specified as final layer and expansion ratio.

Refinement phase
----------------

Found point (80.0001 0.0001 15.43) in cell 86607 on processor 0

Feature refinement iteration 0
------------------------------

Marked for refinement due to explicit features             : 58 cells.
Determined cells to refine in = 1.59 s
Selected for feature refinement : 58 cells (out of 184140)
Edge intersection testing:
    Number of edges             : 565869
    Number of edges to retest   : 2582
    Number of intersected edges : 13062
Refined mesh in = 0.48 s
After refinement feature refinement iteration 0 : cells:184546  faces:565869  points:197060
Cells per refinement level:
    0	184082
    1	464

Feature refinement iteration 1
------------------------------

Marked for refinement due to explicit features             : 110 cells.
Determined cells to refine in = 1.65 s
Selected for feature refinement : 214 cells (out of 184546)
Edge intersection testing:
    Number of edges             : 571248
    Number of edges to retest   : 7947
    Number of intersected edges : 13846
Refined mesh in = 0.51 s
After refinement feature refinement iteration 1 : cells:186044  faces:571248  points:199525
Cells per refinement level:
    0	183978
    1	1186
    2	880

Feature refinement iteration 2
------------------------------

Marked for refinement due to explicit features             : 232 cells.
Determined cells to refine in = 1.66 s
Selected for feature refinement : 542 cells (out of 186044)
Edge intersection testing:
    Number of edges             : 584868
    Number of edges to retest   : 20383
    Number of intersected edges : 14690
Refined mesh in = 0.53 s
After refinement feature refinement iteration 2 : cells:189838  faces:584868  points:205800
Cells per refinement level:
    0	183896
    1	1614
    2	2472
    3	1856

Feature refinement iteration 3
------------------------------

Marked for refinement due to explicit features             : 454 cells.
Determined cells to refine in = 1.69 s
Selected for feature refinement : 1138 cells (out of 189838)
Edge intersection testing:
    Number of edges             : 612987
    Number of edges to retest   : 44252
    Number of intersected edges : 19138
Refined mesh in = 0.59 s
After refinement feature refinement iteration 3 : cells:197804  faces:612987  points:218414
Cells per refinement level:
    0	183854
    1	1740
    2	3720
    3	4858
    4	3632

Feature refinement iteration 4
------------------------------

Marked for refinement due to explicit features             : 915 cells.
Determined cells to refine in = 1.75 s
Selected for feature refinement : 2313 cells (out of 197804)
Edge intersection testing:
    Number of edges             : 670272
    Number of edges to retest   : 88831
    Number of intersected edges : 25862
Refined mesh in = 0.72 s
After refinement feature refinement iteration 4 : cells:213995  faces:670272  points:244226
Cells per refinement level:
    0	183820
    1	1876
    2	4471
    3	6663
    4	9845
    5	7320

Feature refinement iteration 5
------------------------------

Marked for refinement due to explicit features             : 1876 cells.
Determined cells to refine in = 1.87 s
Selected for feature refinement : 4905 cells (out of 213995)
Edge intersection testing:
    Number of edges             : 791907
    Number of edges to retest   : 189329
    Number of intersected edges : 36158
Refined mesh in = 0.92 s
After refinement feature refinement iteration 5 : cells:248330  faces:791907  points:299055
Cells per refinement level:
    0	183818
    1	1873
    2	4307
    3	8331
    4	14893
    5	20100
    6	15008

Feature refinement iteration 6
------------------------------

Marked for refinement due to explicit features             : 0 cells.
Determined cells to refine in = 2.09 s
Selected for feature refinement : 0 cells (out of 248330)
Stopping refining since too few cells selected.


Surface refinement iteration 0
------------------------------

Marked for refinement due to surface intersection          : 17393 cells.
Determined cells to refine in = 0.06 s
Selected for refinement : 18442 cells (out of 248330)
Edge intersection testing:
    Number of edges             : 1213404
    Number of edges to retest   : 615795
    Number of intersected edges : 61634
Refined mesh in = 1.88 s
After refinement surface refinement iteration 0 : cells:377424  faces:1213404  points:462249
Cells per refinement level:
    0	183722
    1	2075
    2	7395
    3	17332
    4	29414
    5	56958
    6	80528

Surface refinement iteration 1
------------------------------

Marked for refinement due to surface intersection          : 36770 cells.
Determined cells to refine in = 0.1 s
Selected for refinement : 38344 cells (out of 377424)
Edge intersection testing:
    Number of edges             : 2073801
    Number of edges to retest   : 1243685
    Number of intersected edges : 117514
Refined mesh in = 3.55 s
After refinement surface refinement iteration 1 : cells:645832  faces:2073801  points:785624
Cells per refinement level:
    0	183680
    1	2014
    2	8196
    3	30600
    4	65828
    5	112138
    6	243376

Surface refinement iteration 2
------------------------------

Marked for refinement due to surface intersection          : 65584 cells.
Determined cells to refine in = 0.19 s
Selected for refinement : 67706 cells (out of 645832)
Edge intersection testing:
    Number of edges             : 3593226
    Number of edges to retest   : 2091025
    Number of intersected edges : 217130
Refined mesh in = 6.35 s
After refinement surface refinement iteration 2 : cells:1119774  faces:3593226  points:1356784
Cells per refinement level:
    0	183678
    1	1904
    2	7954
    3	31364
    4	118760
    5	243650
    6	532464

Surface refinement iteration 3
------------------------------

Marked for refinement due to surface intersection          : 117858 cells.
Determined cells to refine in = 0.37 s
Selected for refinement : 122412 cells (out of 1119774)
Edge intersection testing:
    Number of edges             : 6338826
    Number of edges to retest   : 3636118
    Number of intersected edges : 395546
Refined mesh in = 11.42 s
After refinement surface refinement iteration 3 : cells:1976658  faces:6338826  points:2387867
Cells per refinement level:
    0	183666
    1	1978
    2	7412
    3	31194
    4	132142
    5	433274
    6	1186992

Surface refinement iteration 4
------------------------------

Marked for refinement due to surface intersection          : 144248 cells.
Determined cells to refine in = 0.67 s
Selected for refinement : 147359 cells (out of 1976658)
Edge intersection testing:
    Number of edges             : 9646758
    Number of edges to retest   : 4367222
    Number of intersected edges : 615024
Refined mesh in = 16.06 s
After refinement surface refinement iteration 4 : cells:3008171  faces:9646758  points:3631488
Cells per refinement level:
    0	183664
    1	1982
    2	7172
    3	32234
    4	131481
    5	412518
    6	2239120

Surface refinement iteration 5
------------------------------

Marked for refinement due to surface intersection          : 50884 cells.
Determined cells to refine in = 1.06 s
Selected for refinement : 52491 cells (out of 3008171)
Edge intersection testing:
    Number of edges             : 10832256
    Number of edges to retest   : 1585466
    Number of intersected edges : 699392
Refined mesh in = 14.53 s
After refinement surface refinement iteration 5 : cells:3375608  faces:10832256  points:4081400
Cells per refinement level:
    0	183664
    1	1978
    2	7158
    3	32370
    4	131947
    5	372819
    6	2645672

Surface refinement iteration 6
------------------------------

Marked for refinement due to surface intersection          : 278 cells.
Determined cells to refine in = 1.07 s
Selected for refinement : 302 cells (out of 3375608)
Edge intersection testing:
    Number of edges             : 10838970
    Number of edges to retest   : 17726
    Number of intersected edges : 699850
Refined mesh in = 12.95 s
After refinement surface refinement iteration 6 : cells:3377722  faces:10838970  points:4083854
Cells per refinement level:
    0	183664
    1	1978
    2	7158
    3	32366
    4	131959
    5	372701
    6	2647896

Surface refinement iteration 7
------------------------------

Marked for refinement due to surface intersection          : 6 cells.
Determined cells to refine in = 0.95 s
Selected for refinement : 6 cells (out of 3377722)
Stopping refining since too few cells selected.


Removing mesh beyond surface intersections
------------------------------------------

Found point (80.0001 0.0001 15.43) in global region 0 out of 2 regions.
Keeping all cells in region 0 containing point (80.0001 0.0001 15.43)
Selected for keeping : 2933698 cells.
Edge intersection testing:
    Number of edges             : 9516579
    Number of edges to retest   : 673680
    Number of intersected edges : 699850

Shell refinement iteration 0
----------------------------

Marked for refinement due to distance to explicit features : 0 cells.
Marked for refinement due to refinement shells             : 362201 cells.
Determined cells to refine in = 72.16 s
Selected for internal refinement : 364765 cells (out of 2933698)
Edge intersection testing:
    Number of edges             : 17218332
    Number of edges to retest   : 11650957
    Number of intersected edges : 714094
Refined mesh in = 31.25 s
After refinement shell refinement iteration 0 : cells:5487053  faces:17218332  points:6244499
Cells per refinement level:
    0	113536
    1	561024
    2	14192
    3	35888
    4	176992
    5	560752
    6	4024669

Shell refinement iteration 1
----------------------------

Marked for refinement due to distance to explicit features : 0 cells.
Marked for refinement due to refinement shells             : 977552 cells.
Determined cells to refine in = 4.63 s
Selected for internal refinement : 977552 cells (out of 5487053)
Edge intersection testing:
    Number of edges             : 37829592
    Number of edges to retest   : 26517184
    Number of intersected edges : 714094
Refined mesh in = 68.1 s
After refinement shell refinement iteration 1 : cells:12329917  faces:37829592  points:13170308
Cells per refinement level:
    0	113536
    1	371296
    2	1517824
    3	113536
    4	287104
    5	1415936
    6	8510685

Shell refinement iteration 2
----------------------------

Marked for refinement due to distance to explicit features : 0 cells.
Marked for refinement due to refinement shells             : 2172816 cells.
Determined cells to refine in = 8.15 s
Selected for internal refinement : 2200012 cells (out of 12329917)
Edge intersection testing:
    Number of edges             : 84191367
    Number of edges to retest   : 56922914
    Number of intersected edges : 714094
Refined mesh in = 148.66 s
After refinement shell refinement iteration 2 : cells:27730001  faces:84191367  points:28732301
Cells per refinement level:
    0	113536
    1	371296
    2	910720
    3	4856832
    4	937652
    5	2256224
    6	18283741

Shell refinement iteration 3
----------------------------

Marked for refinement due to distance to explicit features : 0 cells.
Marked for refinement due to refinement shells             : 2016592 cells.
Determined cells to refine in = 12.32 s
Selected for internal refinement : 2020220 cells (out of 27730001)
Edge intersection testing:
    Number of edges             : 126772389
    Number of edges to retest   : 52235424
    Number of intersected edges : 714094
Refined mesh in = 188.44 s
After refinement shell refinement iteration 3 : cells:41871541  faces:126772389  points:43030598
Cells per refinement level:
    0	113536
    1	371296
    2	910720
    3	3550144
    4	11146328
    5	3746144
    6	22033373

Shell refinement iteration 4
----------------------------

Marked for refinement due to distance to explicit features : 0 cells.
Marked for refinement due to refinement shells             : 1028896 cells.
Determined cells to refine in = 15.31 s
Selected for internal refinement : 1029116 cells (out of 41871541)
Edge intersection testing:
    Number of edges             : 148463892
    Number of edges to retest   : 25641644
    Number of intersected edges : 714094
Refined mesh in = 194.71 s
After refinement shell refinement iteration 4 : cells:49075353  faces:148463892  points:50314657
Cells per refinement level:
    0	113536
    1	371296
    2	910720
    3	3550144
    4	10203492
    5	11202552
    6	22723613

Shell refinement iteration 5
----------------------------

Marked for refinement due to distance to explicit features : 0 cells.
Marked for refinement due to refinement shells             : 0 cells.
Determined cells to refine in = 16.46 s
Selected for internal refinement : 0 cells (out of 49075353)
Stopping refining since too few cells selected.


Dangling coarse cells refinement iteration 0
--------------------------------------------

Determined cells to refine in = 1.45 s
Selected for refinement : 0 cells (out of 49075353)
Stopping refining since too few cells selected.


Dangling coarse cells refinement iteration 0
--------------------------------------------

Determined cells to refine in = 1.45 s
Selected for refinement : 0 cells (out of 49075353)
Stopping refining since too few cells selected.


Splitting mesh at surface intersections
---------------------------------------

Introducing baffles for 714094 faces that are intersected by the surface.

Edge intersection testing:
    Number of edges             : 149151136
    Number of edges to retest   : 5461860
    Number of intersected edges : 1401338
Created baffles in = 134.74 s


After introducing baffles : cells:49075353  faces:149151136  points:50314657
Cells per refinement level:
    0	113536
    1	371296
    2	910720
    3	3550144
    4	10203492
    5	11202552
    6	22723613

Introducing baffles to block off problem cells
----------------------------------------------

markFacesOnProblemCells : marked 1349742 additional internal faces to be converted into baffles.
Analyzed problem cells in = 131.45 s


Introducing baffles to delete problem cells.

Edge intersection testing:
    Number of edges             : 150500878
    Number of edges to retest   : 4069349
    Number of intersected edges : 1401338
Created baffles in = 138.21 s


After introducing baffles : cells:49075353  faces:150500878  points:50314657
Cells per refinement level:
    0	113536
    1	371296
    2	910720
    3	3550144
    4	10203492
    5	11202552
    6	22723613

Remove unreachable sections of mesh
-----------------------------------

Keeping all cells in region 0 containing point (80.0001 0.0001 15.43)
Selected for keeping : 48384351 cells.
Edge intersection testing:
    Number of edges             : 146392925
    Number of edges to retest   : 0
    Number of intersected edges : 714080
Split mesh in = 1464.54 s


After subsetting : cells:48384351  faces:146392925  points:49625886
Cells per refinement level:
    0	113536
    1	371296
    2	910720
    3	3550144
    4	10203492
    5	11202552
    6	22032611

Handling cells with snap problems
---------------------------------

Introducing baffles for 714080 faces that are intersected by the surface.

Edge intersection testing:
    Number of edges             : 146392925
    Number of edges to retest   : 2796372
    Number of intersected edges : 714080
Created baffles in = 103.07 s


After introducing baffles : cells:48384351  faces:146392925  points:49625886
Cells per refinement level:
    0	113536
    1	371296
    2	910720
    3	3550144
    4	10203492
    5	11202552
    6	22032611

Introducing baffles to block off problem cells
----------------------------------------------

markFacesOnProblemCells : marked 0 additional internal faces to be converted into baffles.
Analyzed problem cells in = 123.68 s


Introducing baffles to delete problem cells.

Edge intersection testing:
    Number of edges             : 146392925
    Number of edges to retest   : 0
    Number of intersected edges : 714080
Created baffles in = 99.77 s


After introducing baffles : cells:48384351  faces:146392925  points:49625886
Cells per refinement level:
    0	113536
    1	371296
    2	910720
    3	3550144
    4	10203492
    5	11202552
    6	22032611

Remove unreachable sections of mesh
-----------------------------------

Keeping all cells in region 0 containing point (80.0001 0.0001 15.43)
Selected for keeping : 48384351 cells.
Edge intersection testing:
    Number of edges             : 146392925
    Number of edges to retest   : 0
    Number of intersected edges : 714080
Split mesh in = 1431.57 s


After subsetting : cells:48384351  faces:146392925  points:49625886
Cells per refinement level:
    0	113536
    1	371296
    2	910720
    3	3550144
    4	10203492
    5	11202552
    6	22032611

Merge free-standing baffles
---------------------------

freeStandingBaffles : detected 2 free-standing baffles out of 2

freeStandingBaffles : detected 2 planar (within 15 degrees) free-standing baffles out of 2

Detected free-standing baffles : 2
Edge intersection testing:
    Number of edges             : 146392923
    Number of edges to retest   : 2
    Number of intersected edges : 714078

Introducing baffles to block off problem cells
----------------------------------------------

markFacesOnProblemCells : marked 0 additional internal faces to be converted into baffles.
Analyzed problem cells in = 247.68 s


Introducing baffles to delete problem cells.

Edge intersection testing:
    Number of edges             : 146392923
    Number of edges to retest   : 0
    Number of intersected edges : 714078
Created baffles in = 94.61 s


After introducing baffles : cells:48384351  faces:146392923  points:49625886
Cells per refinement level:
    0	113536
    1	371296
    2	910720
    3	3550144
    4	10203492
    5	11202552
    6	22032611
Merged free-standing baffles in = 0.45 s


dupNonManifoldPoints : Found : 0 non-manifold points (out of 49625886)
Edge intersection testing:
    Number of edges             : 146392923
    Number of edges to retest   : 0
    Number of intersected edges : 714078
Detected unsplittable baffles : 0

Merge refined boundary faces
----------------------------

Merging 0 sets of faces.

No faces merged ...

Merging all points on surface that
- are used by only two boundary faces and
- make an angle with a cosine of more than 0.707107.

No straight edges simplified and no points removed ...
Refined mesh : cells:48384351  faces:146392923  points:49625886
Cells per refinement level:
    0	113536
    1	371296
    2	910720
    3	3550144
    4	10203492
    5	11202552
    6	22032611
Writing mesh to time 1
Wrote mesh in = 143.27 s.
Mesh refined in = 4963.39 s.

Morphing phase
--------------


Snapping to features in 10 iterations ...
Constructing mesh displacer ...
Using mesh parameters 
{
    maxNonOrtho     65;
    maxBoundarySkewness 20;
    maxInternalSkewness 4;
    maxConcave      80;
    minVol          1e-13;
    minTetQuality   1e-15;
    minArea         -1;
    minTwist        0.02;
    minDeterminant  0.001;
    minFaceWeight   0.02;
    minVolRatio     0.01;
    minTriangleTwist -1;
    nSmoothScale    4;
    errorReduction  0.75;
}


Checking initial mesh ...
Checking faces in error :
    non-orthogonality > 65  degrees                        : 0
    faces with face pyramid volume < 1e-13                 : 0
    faces with face-decomposition tet quality < 1e-15      : 0
    faces with concavity > 80  degrees                     : 0
    faces with skewness > 4   (internal) or 20  (boundary) : 0
    faces with interpolation weights (0..1)  < 0.02        : 0
    faces with volume ratio of neighbour cells < 0.01      : 0
    faces with face twist < 0.02                           : 0
    faces on cells with determinant < 0.001                : 0
Detected 0 illegal faces (concave, zero area or negative cell pyramid volume)
Checked initial mesh in = 179.15 s


Smoothing patch points ...
Smoothing iteration 0
Found 0 non-manifold point(s).

Scaling iteration 0
Moving mesh using displacement scaling : min:1  max:1
Checking faces in error :
    non-orthogonality > 65  degrees                        : 0
    faces with face pyramid volume < 1e-13                 : 0
    faces with face-decomposition tet quality < 1e-15      : 0
    faces with concavity > 80  degrees                     : 0
    faces with skewness > 4   (internal) or 20  (boundary) : 0
    faces with interpolation weights (0..1)  < 0.02        : 0
    faces with volume ratio of neighbour cells < 0.01      : 0
    faces with face twist < 0.02                           : 0
    faces on cells with determinant < 0.001                : 0
Successfully moved mesh

Smoothing iteration 1
Found 0 non-manifold point(s).

Scaling iteration 0
Moving mesh using displacement scaling : min:1  max:1
Checking faces in error :
    non-orthogonality > 65  degrees                        : 0
    faces with face pyramid volume < 1e-13                 : 0
    faces with face-decomposition tet quality < 1e-15      : 0
    faces with concavity > 80  degrees                     : 0
    faces with skewness > 4   (internal) or 20  (boundary) : 0
    faces with interpolation weights (0..1)  < 0.02        : 0
    faces with volume ratio of neighbour cells < 0.01      : 0
    faces with face twist < 0.02                           : 0
    faces on cells with determinant < 0.001                : 0
Successfully moved mesh

Smoothing iteration 2
Found 0 non-manifold point(s).

Scaling iteration 0
Moving mesh using displacement scaling : min:1  max:1
Checking faces in error :
    non-orthogonality > 65  degrees                        : 0
    faces with face pyramid volume < 1e-13                 : 0
    faces with face-decomposition tet quality < 1e-15      : 0
    faces with concavity > 80  degrees                     : 0
    faces with skewness > 4   (internal) or 20  (boundary) : 0
    faces with interpolation weights (0..1)  < 0.02        : 0
    faces with volume ratio of neighbour cells < 0.01      : 0
    faces with face twist < 0.02                           : 0
    faces on cells with determinant < 0.001                : 0
Successfully moved mesh

Patch points smoothed in = 749.5 s



Morph iteration 0
-----------------
Calculating patchDisplacement as distance to nearest surface point ...
Wanted displacement : average:0.00613856 min:3.14541e-09 max:0.470172
Calculated surface displacement in = 1.66 s


Detecting near surfaces ...
Overriding nearest with intersection of close gaps at 0 out of 714768 points.
Overriding displacement on features :
   implicit features    : false
   explicit features    : true
   multi-patch features : false

Detected 0 baffle edges out of 1428850 edges.
Initially selected 4950 points out of 714768 for reverse attraction.
Selected 13704 points out of 714768 for reverse attraction.
Stringing feature edges : changed 77 points
Stringing feature edges : changed 4 points
Stringing feature edges : changed 0 points
Attraction:
     linear   : max:(0.470172 0 0) avg:(0.000130401 -4.78726e-08 0.0018125)
     feature  : max:(0.470172 0.470779 0) avg:(1.00231e-05 -1.27349e-09 1.86735e-05)
Feature analysis : total master points:714768 attraction to :
    feature point   : 16
    feature edge    : 4878
    nearest surface : 0
    rest            : 709874

--> FOAM Warning : Displacement (7.51917e-06 3.26547e-17 0.00045595) at mesh point 522075 coord (-0.0987097 -1.01563 3.59543) points through the surrounding patch faces
Smoothing displacement ...
Iteration 0
Iteration 10
Iteration 20
Displacement smoothed in = 234.18 s


Moving mesh ...

Iteration 0
Moving mesh using displacement scaling : min:1  max:1
Checking faces in error :
    non-orthogonality > 65  degrees                        : 0
    faces with face pyramid volume < 1e-13                 : 0
    faces with face-decomposition tet quality < 1e-15      : 0
    faces with concavity > 80  degrees                     : 0
    faces with skewness > 4   (internal) or 20  (boundary) : 0
    faces with interpolation weights (0..1)  < 0.02        : 0
    faces with volume ratio of neighbour cells < 0.01      : 0
    faces with face twist < 0.02                           : 0
    faces on cells with determinant < 0.001                : 0
Successfully moved mesh
Moved mesh in = 241.68 s



Morph iteration 1
-----------------
Calculating patchDisplacement as distance to nearest surface point ...
Wanted displacement : average:0.00554644 min:8.10623e-09 max:0.423154
Calculated surface displacement in = 1.91 s


Detecting near surfaces ...
Overriding nearest with intersection of close gaps at 0 out of 714768 points.
Overriding displacement on features :
   implicit features    : false
   explicit features    : true
   multi-patch features : false

Detected 0 baffle edges out of 1428850 edges.
Initially selected 4950 points out of 714768 for reverse attraction.
Selected 13699 points out of 714768 for reverse attraction.
Stringing feature edges : changed 72 points
Stringing feature edges : changed 4 points
Stringing feature edges : changed 0 points
Attraction:
     linear   : max:(0.423154 0 0) avg:(0.00011762 -4.50304e-08 0.00163357)
     feature  : max:(0.423154 0.466071 0) avg:(9.7518e-06 -1.70132e-10 1.82837e-05)
Feature analysis : total master points:714768 attraction to :
    feature point   : 16
    feature edge    : 4875
    nearest surface : 0
    rest            : 709877

--> FOAM Warning : Displacement (1.18472e-05 -1.57624e-13 0.000824827) at mesh point 522075 coord (-0.0987022 -1.01563 3.59589) points through the surrounding patch faces
Smoothing displacement ...
Iteration 0
Iteration 10
Iteration 20
Displacement smoothed in = 241.25 s


Moving mesh ...

Iteration 0
Moving mesh using displacement scaling : min:1  max:1
Checking faces in error :
    non-orthogonality > 65  degrees                        : 0
    faces with face pyramid volume < 1e-13                 : 0
    faces with face-decomposition tet quality < 1e-15      : 0
    faces with concavity > 80  degrees                     : 0
    faces with skewness > 4   (internal) or 20  (boundary) : 0
    faces with interpolation weights (0..1)  < 0.02        : 0
    faces with volume ratio of neighbour cells < 0.01      : 0
    faces with face twist < 0.02                           : 0
    faces on cells with determinant < 0.001                : 0
Successfully moved mesh
Moved mesh in = 241.57 s



Morph iteration 2
-----------------
Calculating patchDisplacement as distance to nearest surface point ...
Wanted displacement : average:0.00447021 min:8.10623e-09 max:0.338524
Calculated surface displacement in = 1.85 s


Detecting near surfaces ...
Overriding nearest with intersection of close gaps at 0 out of 714768 points.
Overriding displacement on features :
   implicit features    : false
   explicit features    : true
   multi-patch features : false

Detected 0 baffle edges out of 1428850 edges.
Initially selected 4950 points out of 714768 for reverse attraction.
Selected 13690 points out of 714768 for reverse attraction.
Stringing feature edges : changed 65 points
Stringing feature edges : changed 0 points
Attraction:
     linear   : max:(0.338524 0 0) avg:(9.43622e-05 -3.81103e-08 0.00131033)
     feature  : max:(0.338524 0.447428 0) avg:(9.11502e-06 -8.56319e-09 1.7257e-05)
Feature analysis : total master points:714768 attraction to :
    feature point   : 16
    feature edge    : 4870
    nearest surface : 0
    rest            : 709882

--> FOAM Warning : Displacement (1.14419e-05 -3.69813e-12 0.000995686) at mesh point 522075 coord (-0.0986903 -1.01563 3.59671) points through the surrounding patch faces
Smoothing displacement ...
Iteration 0
Iteration 10
Iteration 20
Displacement smoothed in = 238.48 s


Moving mesh ...

Iteration 0
Moving mesh using displacement scaling : min:1  max:1
Checking faces in error :
    non-orthogonality > 65  degrees                        : 0
    faces with face pyramid volume < 1e-13                 : 0
    faces with face-decomposition tet quality < 1e-15      : 0
    faces with concavity > 80  degrees                     : 0
    faces with skewness > 4   (internal) or 20  (boundary) : 0
    faces with interpolation weights (0..1)  < 0.02        : 0
    faces with volume ratio of neighbour cells < 0.01      : 0
    faces with face twist < 0.02                           : 0
    faces on cells with determinant < 0.001                : 0
Successfully moved mesh
Moved mesh in = 241.97 s



Morph iteration 3
-----------------
Calculating patchDisplacement as distance to nearest surface point ...
Wanted displacement : average:0.003163 min:5.697e-09 max:0.236967
Calculated surface displacement in = 1.79 s


Detecting near surfaces ...
Overriding nearest with intersection of close gaps at 0 out of 714768 points.
Overriding displacement on features :
   implicit features    : false
   explicit features    : true
   multi-patch features : false

Detected 0 baffle edges out of 1428850 edges.
Initially selected 4941 points out of 714768 for reverse attraction.
Selected 13655 points out of 714768 for reverse attraction.
Stringing feature edges : changed 60 points
Stringing feature edges : changed 0 points
Attraction:
     linear   : max:(0.236967 0 0) avg:(6.60724e-05 -2.94925e-08 0.000920402)
     feature  : max:(0.236967 0.40716 0) avg:(7.97022e-06 -8.45055e-09 1.5339e-05)
Feature analysis : total master points:714768 attraction to :
    feature point   : 16
    feature edge    : 4863
    nearest surface : 0
    rest            : 709889

--> FOAM Warning : Displacement (7.22301e-06 -2.69829e-12 0.000931797) at mesh point 522075 coord (-0.0986789 -1.01563 3.59771) points through the surrounding patch faces
Smoothing displacement ...
Iteration 0
Iteration 10
Iteration 20
Displacement smoothed in = 239.94 s


Moving mesh ...

Iteration 0
Moving mesh using displacement scaling : min:1  max:1
Checking faces in error :
    non-orthogonality > 65  degrees                        : 0
    faces with face pyramid volume < 1e-13                 : 0
    faces with face-decomposition tet quality < 1e-15      : 0
    faces with concavity > 80  degrees                     : 0
    faces with skewness > 4   (internal) or 20  (boundary) : 0
    faces with interpolation weights (0..1)  < 0.02        : 0
    faces with volume ratio of neighbour cells < 0.01      : 0
    faces with face twist < 0.02                           : 0
    faces on cells with determinant < 0.001                : 0
Successfully moved mesh
Moved mesh in = 242 s



Morph iteration 4
-----------------
Calculating patchDisplacement as distance to nearest surface point ...
Wanted displacement : average:0.00193168 min:4.05176e-09 max:0.14218
Calculated surface displacement in = 1.72 s


Detecting near surfaces ...
Overriding nearest with intersection of close gaps at 0 out of 714768 points.
Overriding displacement on features :
   implicit features    : false
   explicit features    : true
   multi-patch features : false

Detected 0 baffle edges out of 1428850 edges.
Initially selected 4939 points out of 714768 for reverse attraction.
Selected 13642 points out of 714768 for reverse attraction.
Stringing feature edges : changed 53 points
Stringing feature edges : changed 0 points
Attraction:
     linear   : max:(0.14218 0 0) avg:(3.92085e-05 -1.99821e-08 0.000553731)
     feature  : max:(0.14218 0.342014 0) avg:(6.39986e-06 -1.75591e-08 1.2576e-05)
Feature analysis : total master points:714768 attraction to :
    feature point   : 16
    feature edge    : 4862
    nearest surface : 0
    rest            : 709890

--> FOAM Warning : Displacement (2.05989e-06 2.59334e-11 0.000693582) at mesh point 522075 coord (-0.0986716 -1.01563 3.59864) points through the surrounding patch faces
Smoothing displacement ...
Iteration 0
Iteration 10
Iteration 20
Displacement smoothed in = 240.74 s


Moving mesh ...

Iteration 0
Moving mesh using displacement scaling : min:1  max:1
Checking faces in error :
    non-orthogonality > 65  degrees                        : 0
    faces with face pyramid volume < 1e-13                 : 0
    faces with face-decomposition tet quality < 1e-15      : 0
    faces with concavity > 80  degrees                     : 0
    faces with skewness > 4   (internal) or 20  (boundary) : 0
    faces with interpolation weights (0..1)  < 0.02        : 0
    faces with volume ratio of neighbour cells < 0.01      : 0
    faces with face twist < 0.02                           : 0
    faces on cells with determinant < 0.001                : 0
Successfully moved mesh
Moved mesh in = 242.25 s



Morph iteration 5
-----------------
Calculating patchDisplacement as distance to nearest surface point ...
Wanted displacement : average:0.000994624 min:8.10623e-09 max:0.07109
Calculated surface displacement in = 1.66 s


Detecting near surfaces ...
Overriding nearest with intersection of close gaps at 0 out of 714768 points.
Overriding displacement on features :
   implicit features    : false
   explicit features    : true
   multi-patch features : false

Detected 0 baffle edges out of 1428850 edges.
Initially selected 4939 points out of 714768 for reverse attraction.
Selected 13642 points out of 714768 for reverse attraction.
Stringing feature edges : changed 47 points
Stringing feature edges : changed 0 points
Attraction:
     linear   : max:(0.07109 0 0) avg:(1.86625e-05 -9.49479e-09 0.000275941)
     feature  : max:(0.07109 0.256511 0) avg:(4.6236e-06 -1.2701e-08 9.25971e-06)
Feature analysis : total master points:714768 attraction to :
    feature point   : 14
    feature edge    : 4866
    nearest surface : 0
    rest            : 709888

--> FOAM Warning : Displacement (-1.65865e-06 4.69867e-11 0.000404852) at mesh point 522075 coord (-0.0986696 -1.01562 3.59933) points through the surrounding patch faces
Smoothing displacement ...
Iteration 0
Iteration 10
Iteration 20
Displacement smoothed in = 241.01 s


Moving mesh ...

Iteration 0
Moving mesh using displacement scaling : min:1  max:1
Checking faces in error :
    non-orthogonality > 65  degrees                        : 0
    faces with face pyramid volume < 1e-13                 : 0
    faces with face-decomposition tet quality < 1e-15      : 2
    faces with concavity > 80  degrees                     : 0
    faces with skewness > 4   (internal) or 20  (boundary) : 0
    faces with interpolation weights (0..1)  < 0.02        : 0
    faces with volume ratio of neighbour cells < 0.01      : 0
    faces with face twist < 0.02                           : 0
    faces on cells with determinant < 0.001                : 0

Iteration 1
Moving mesh using displacement scaling : min:0.75  max:1
Checking faces in error :
    non-orthogonality > 65  degrees                        : 0
    faces with face pyramid volume < 1e-13                 : 0
    faces with face-decomposition tet quality < 1e-15      : 2
    faces with concavity > 80  degrees                     : 0
    faces with skewness > 4   (internal) or 20  (boundary) : 0
    faces with interpolation weights (0..1)  < 0.02        : 0
    faces with volume ratio of neighbour cells < 0.01      : 0
    faces with face twist < 0.02                           : 0
    faces on cells with determinant < 0.001                : 0

Iteration 2
Moving mesh using displacement scaling : min:0.5625  max:1
Checking faces in error :
    non-orthogonality > 65  degrees                        : 0
    faces with face pyramid volume < 1e-13                 : 0
    faces with face-decomposition tet quality < 1e-15      : 0
    faces with concavity > 80  degrees                     : 0
    faces with skewness > 4   (internal) or 20  (boundary) : 0
    faces with interpolation weights (0..1)  < 0.02        : 0
    faces with volume ratio of neighbour cells < 0.01      : 0
    faces with face twist < 0.02                           : 2
    faces on cells with determinant < 0.001                : 0

Iteration 3
Moving mesh using displacement scaling : min:0.421875  max:1
Checking faces in error :
    non-orthogonality > 65  degrees                        : 0
    faces with face pyramid volume < 1e-13                 : 0
    faces with face-decomposition tet quality < 1e-15      : 0
    faces with concavity > 80  degrees                     : 0
    faces with skewness > 4   (internal) or 20  (boundary) : 0
    faces with interpolation weights (0..1)  < 0.02        : 0
    faces with volume ratio of neighbour cells < 0.01      : 0
    faces with face twist < 0.02                           : 0
    faces on cells with determinant < 0.001                : 0
Successfully moved mesh
Moved mesh in = 494.46 s



Morph iteration 6
-----------------
Calculating patchDisplacement as distance to nearest surface point ...
Wanted displacement : average:0.000423936 min:8.10623e-09 max:0.028436
Calculated surface displacement in = 1.55 s


Detecting near surfaces ...
Overriding nearest with intersection of close gaps at 10 out of 714768 points.
Overriding displacement on features :
   implicit features    : false
   explicit features    : true
   multi-patch features : false

Detected 0 baffle edges out of 1428850 edges.
Initially selected 4937 points out of 714768 for reverse attraction.
Selected 13636 points out of 714768 for reverse attraction.
Stringing feature edges : changed 47 points
Stringing feature edges : changed 0 points
Attraction:
     linear   : max:(0.028436 0 0) avg:(6.20095e-06 -2.1423e-09 0.000107375)
     feature  : max:(0.140974 0.141156 0) avg:(2.8519e-06 -7.60854e-09 5.83539e-06)
Feature analysis : total master points:714768 attraction to :
    feature point   : 14
    feature edge    : 4866
    nearest surface : 0
    rest            : 709888

--> FOAM Warning : Displacement (-3.49436e-06 2.32023e-11 0.000179433) at mesh point 522075 coord (-0.0986712 -1.01562 3.59974) points through the surrounding patch faces
Smoothing displacement ...
Iteration 0
Iteration 10
Iteration 20
Displacement smoothed in = 244.35 s


Moving mesh ...

Iteration 0
Moving mesh using displacement scaling : min:1  max:1
Checking faces in error :
    non-orthogonality > 65  degrees                        : 0
    faces with face pyramid volume < 1e-13                 : 0
    faces with face-decomposition tet quality < 1e-15      : 2
    faces with concavity > 80  degrees                     : 0
    faces with skewness > 4   (internal) or 20  (boundary) : 0
    faces with interpolation weights (0..1)  < 0.02        : 0
    faces with volume ratio of neighbour cells < 0.01      : 0
    faces with face twist < 0.02                           : 0
    faces on cells with determinant < 0.001                : 0

Iteration 1
Moving mesh using displacement scaling : min:0.75  max:1
Checking faces in error :
    non-orthogonality > 65  degrees                        : 0
    faces with face pyramid volume < 1e-13                 : 0
    faces with face-decomposition tet quality < 1e-15      : 2
    faces with concavity > 80  degrees                     : 0
    faces with skewness > 4   (internal) or 20  (boundary) : 0
    faces with interpolation weights (0..1)  < 0.02        : 0
    faces with volume ratio of neighbour cells < 0.01      : 0
    faces with face twist < 0.02                           : 0
    faces on cells with determinant < 0.001                : 0

Iteration 2
Moving mesh using displacement scaling : min:0.5625  max:1
Checking faces in error :
    non-orthogonality > 65  degrees                        : 0
    faces with face pyramid volume < 1e-13                 : 0
    faces with face-decomposition tet quality < 1e-15      : 2
    faces with concavity > 80  degrees                     : 0
    faces with skewness > 4   (internal) or 20  (boundary) : 0
    faces with interpolation weights (0..1)  < 0.02        : 0
    faces with volume ratio of neighbour cells < 0.01      : 0
    faces with face twist < 0.02                           : 0
    faces on cells with determinant < 0.001                : 0

Iteration 3
Moving mesh using displacement scaling : min:0.421875  max:1
Checking faces in error :
    non-orthogonality > 65  degrees                        : 0
    faces with face pyramid volume < 1e-13                 : 0
    faces with face-decomposition tet quality < 1e-15      : 2
    faces with concavity > 80  degrees                     : 0
    faces with skewness > 4   (internal) or 20  (boundary) : 0
    faces with interpolation weights (0..1)  < 0.02        : 0
    faces with volume ratio of neighbour cells < 0.01      : 0
    faces with face twist < 0.02                           : 0
    faces on cells with determinant < 0.001                : 0

Iteration 4
Moving mesh using displacement scaling : min:0.316406  max:1
Checking faces in error :
    non-orthogonality > 65  degrees                        : 0
    faces with face pyramid volume < 1e-13                 : 0
    faces with face-decomposition tet quality < 1e-15      : 2
    faces with concavity > 80  degrees                     : 0
    faces with skewness > 4   (internal) or 20  (boundary) : 0
    faces with interpolation weights (0..1)  < 0.02        : 0
    faces with volume ratio of neighbour cells < 0.01      : 0
    faces with face twist < 0.02                           : 0
    faces on cells with determinant < 0.001                : 0

Iteration 5
Displacement scaling for error reduction set to 0.
Moving mesh using displacement scaling : min:0.237305  max:1
Checking faces in error :
    non-orthogonality > 65  degrees                        : 0
    faces with face pyramid volume < 1e-13                 : 0
    faces with face-decomposition tet quality < 1e-15      : 2
    faces with concavity > 80  degrees                     : 0
    faces with skewness > 4   (internal) or 20  (boundary) : 0
    faces with interpolation weights (0..1)  < 0.02        : 0
    faces with volume ratio of neighbour cells < 0.01      : 0
    faces with face twist < 0.02                           : 0
    faces on cells with determinant < 0.001                : 0

Iteration 6
Moving mesh using displacement scaling : min:0  max:1
Checking faces in error :
    non-orthogonality > 65  degrees                        : 0
    faces with face pyramid volume < 1e-13                 : 0
    faces with face-decomposition tet quality < 1e-15      : 0
    faces with concavity > 80  degrees                     : 0
    faces with skewness > 4   (internal) or 20  (boundary) : 0
    faces with interpolation weights (0..1)  < 0.02        : 0
    faces with volume ratio of neighbour cells < 0.01      : 0
    faces with face twist < 0.02                           : 0
    faces on cells with determinant < 0.001                : 0
Successfully moved mesh
Moved mesh in = 744.48 s



Morph iteration 7
-----------------
Calculating patchDisplacement as distance to nearest surface point ...
Wanted displacement : average:0.000153055 min:1.60257e-09 max:0.0400109
Calculated surface displacement in = 1.53 s


Detecting near surfaces ...
Overriding nearest with intersection of close gaps at 26 out of 714768 points.
Overriding displacement on features :
   implicit features    : false
   explicit features    : true
   multi-patch features : false

Detected 0 baffle edges out of 1428850 edges.
Initially selected 4939 points out of 714768 for reverse attraction.
Selected 13636 points out of 714768 for reverse attraction.
Stringing feature edges : changed 49 points
Stringing feature edges : changed 0 points
Attraction:
     linear   : max:(0 0.0400109 0) avg:(6.55854e-07 1.63084e-09 2.84743e-05)
     feature  : max:(0.106435 0.106573 0) avg:(1.35841e-06 -6.55735e-10 2.93032e-06)
Feature analysis : total master points:714768 attraction to :
    feature point   : 16
    feature edge    : 4872
    nearest surface : 0
    rest            : 709880

--> FOAM Warning : Displacement (-2.13057e-06 1.67074e-09 3.55872e-06) at mesh point 2840060 coord (-10.886 0.031248 3.28473) points through the surrounding patch faces
Smoothing displacement ...
Iteration 0
Iteration 10
Iteration 20
Displacement smoothed in = 242.61 s


Moving mesh ...

Iteration 0
Moving mesh using displacement scaling : min:1  max:1
Checking faces in error :
    non-orthogonality > 65  degrees                        : 0
    faces with face pyramid volume < 1e-13                 : 0
    faces with face-decomposition tet quality < 1e-15      : 5
    faces with concavity > 80  degrees                     : 0
    faces with skewness > 4   (internal) or 20  (boundary) : 0
    faces with interpolation weights (0..1)  < 0.02        : 0
    faces with volume ratio of neighbour cells < 0.01      : 0
    faces with face twist < 0.02                           : 0
    faces on cells with determinant < 0.001                : 0

Iteration 1
Moving mesh using displacement scaling : min:0.75  max:1
Checking faces in error :
    non-orthogonality > 65  degrees                        : 0
    faces with face pyramid volume < 1e-13                 : 0
    faces with face-decomposition tet quality < 1e-15      : 3
    faces with concavity > 80  degrees                     : 0
    faces with skewness > 4   (internal) or 20  (boundary) : 0
    faces with interpolation weights (0..1)  < 0.02        : 0
    faces with volume ratio of neighbour cells < 0.01      : 0
    faces with face twist < 0.02                           : 0
    faces on cells with determinant < 0.001                : 0

Iteration 2
Moving mesh using displacement scaling : min:0.5625  max:1
Checking faces in error :
    non-orthogonality > 65  degrees                        : 0
    faces with face pyramid volume < 1e-13                 : 0
    faces with face-decomposition tet quality < 1e-15      : 3
    faces with concavity > 80  degrees                     : 0
    faces with skewness > 4   (internal) or 20  (boundary) : 0
    faces with interpolation weights (0..1)  < 0.02        : 0
    faces with volume ratio of neighbour cells < 0.01      : 0
    faces with face twist < 0.02                           : 0
    faces on cells with determinant < 0.001                : 0

Iteration 3
Moving mesh using displacement scaling : min:0.421875  max:1
Checking faces in error :
    non-orthogonality > 65  degrees                        : 0
    faces with face pyramid volume < 1e-13                 : 0
    faces with face-decomposition tet quality < 1e-15      : 3
    faces with concavity > 80  degrees                     : 0
    faces with skewness > 4   (internal) or 20  (boundary) : 0
    faces with interpolation weights (0..1)  < 0.02        : 0
    faces with volume ratio of neighbour cells < 0.01      : 0
    faces with face twist < 0.02                           : 0
    faces on cells with determinant < 0.001                : 0

Iteration 4
Moving mesh using displacement scaling : min:0.316406  max:1
Checking faces in error :
    non-orthogonality > 65  degrees                        : 0
    faces with face pyramid volume < 1e-13                 : 0
    faces with face-decomposition tet quality < 1e-15      : 3
    faces with concavity > 80  degrees                     : 0
    faces with skewness > 4   (internal) or 20  (boundary) : 0
    faces with interpolation weights (0..1)  < 0.02        : 0
    faces with volume ratio of neighbour cells < 0.01      : 0
    faces with face twist < 0.02                           : 0
    faces on cells with determinant < 0.001                : 0

Iteration 5
Displacement scaling for error reduction set to 0.
Moving mesh using displacement scaling : min:0.237305  max:1
Checking faces in error :
    non-orthogonality > 65  degrees                        : 0
    faces with face pyramid volume < 1e-13                 : 0
    faces with face-decomposition tet quality < 1e-15      : 2
    faces with concavity > 80  degrees                     : 0
    faces with skewness > 4   (internal) or 20  (boundary) : 0
    faces with interpolation weights (0..1)  < 0.02        : 0
    faces with volume ratio of neighbour cells < 0.01      : 0
    faces with face twist < 0.02                           : 0
    faces on cells with determinant < 0.001                : 0

Iteration 6
Moving mesh using displacement scaling : min:0  max:1
Checking faces in error :
    non-orthogonality > 65  degrees                        : 0
    faces with face pyramid volume < 1e-13                 : 0
    faces with face-decomposition tet quality < 1e-15      : 0
    faces with concavity > 80  degrees                     : 0
    faces with skewness > 4   (internal) or 20  (boundary) : 0
    faces with interpolation weights (0..1)  < 0.02        : 0
    faces with volume ratio of neighbour cells < 0.01      : 0
    faces with face twist < 0.02                           : 0
    faces on cells with determinant < 0.001                : 0
Successfully moved mesh
Moved mesh in = 742.97 s



Morph iteration 8
-----------------
Calculating patchDisplacement as distance to nearest surface point ...
Wanted displacement : average:5.26671e-05 min:9.88957e-10 max:0.0347313
Calculated surface displacement in = 1.52 s


Detecting near surfaces ...
Overriding nearest with intersection of close gaps at 29 out of 714768 points.
Overriding displacement on features :
   implicit features    : false
   explicit features    : true
   multi-patch features : false

Detected 0 baffle edges out of 1428850 edges.
Initially selected 4933 points out of 714768 for reverse attraction.
Selected 13610 points out of 714768 for reverse attraction.
Stringing feature edges : changed 42 points
Stringing feature edges : changed 0 points
Attraction:
     linear   : max:(0 0.0347313 0) avg:(-6.56222e-07 2.5569e-09 2.77264e-06)
     feature  : max:(0.072376 0.0724695 0) avg:(4.90961e-07 -2.19002e-09 1.0578e-06)
Feature analysis : total master points:714768 attraction to :
    feature point   : 14
    feature edge    : 4872
    nearest surface : 0
    rest            : 709882

--> FOAM Warning : Displacement (-4.84959e-06 6.4837e-09 1.18149e-05) at mesh point 2839980 coord (-10.886 -1.27884e-05 3.28475) points through the surrounding patch faces
Smoothing displacement ...
Iteration 0
Iteration 10
Iteration 20
Displacement smoothed in = 242.61 s


Moving mesh ...

Iteration 0
Moving mesh using displacement scaling : min:1  max:1
Checking faces in error :
    non-orthogonality > 65  degrees                        : 0
    faces with face pyramid volume < 1e-13                 : 0
    faces with face-decomposition tet quality < 1e-15      : 14
    faces with concavity > 80  degrees                     : 0
    faces with skewness > 4   (internal) or 20  (boundary) : 0
    faces with interpolation weights (0..1)  < 0.02        : 0
    faces with volume ratio of neighbour cells < 0.01      : 0
    faces with face twist < 0.02                           : 0
    faces on cells with determinant < 0.001                : 0

Iteration 1
Moving mesh using displacement scaling : min:0.75  max:1
Checking faces in error :
    non-orthogonality > 65  degrees                        : 0
    faces with face pyramid volume < 1e-13                 : 0
    faces with face-decomposition tet quality < 1e-15      : 6
    faces with concavity > 80  degrees                     : 0
    faces with skewness > 4   (internal) or 20  (boundary) : 0
    faces with interpolation weights (0..1)  < 0.02        : 0
    faces with volume ratio of neighbour cells < 0.01      : 0
    faces with face twist < 0.02                           : 0
    faces on cells with determinant < 0.001                : 0

Iteration 2
Moving mesh using displacement scaling : min:0.5625  max:1
Checking faces in error :
    non-orthogonality > 65  degrees                        : 0
    faces with face pyramid volume < 1e-13                 : 0
    faces with face-decomposition tet quality < 1e-15      : 4
    faces with concavity > 80  degrees                     : 0
    faces with skewness > 4   (internal) or 20  (boundary) : 0
    faces with interpolation weights (0..1)  < 0.02        : 0
    faces with volume ratio of neighbour cells < 0.01      : 0
    faces with face twist < 0.02                           : 0
    faces on cells with determinant < 0.001                : 0

Iteration 3
Moving mesh using displacement scaling : min:0.421875  max:1
Checking faces in error :
    non-orthogonality > 65  degrees                        : 0
    faces with face pyramid volume < 1e-13                 : 0
    faces with face-decomposition tet quality < 1e-15      : 3
    faces with concavity > 80  degrees                     : 0
    faces with skewness > 4   (internal) or 20  (boundary) : 0
    faces with interpolation weights (0..1)  < 0.02        : 0
    faces with volume ratio of neighbour cells < 0.01      : 0
    faces with face twist < 0.02                           : 0
    faces on cells with determinant < 0.001                : 0

Iteration 4
Moving mesh using displacement scaling : min:0.316406  max:1
Checking faces in error :
    non-orthogonality > 65  degrees                        : 0
    faces with face pyramid volume < 1e-13                 : 0
    faces with face-decomposition tet quality < 1e-15      : 3
    faces with concavity > 80  degrees                     : 0
    faces with skewness > 4   (internal) or 20  (boundary) : 0
    faces with interpolation weights (0..1)  < 0.02        : 0
    faces with volume ratio of neighbour cells < 0.01      : 0
    faces with face twist < 0.02                           : 0
    faces on cells with determinant < 0.001                : 0

Iteration 5
Displacement scaling for error reduction set to 0.
Moving mesh using displacement scaling : min:0.237305  max:1
Checking faces in error :
    non-orthogonality > 65  degrees                        : 0
    faces with face pyramid volume < 1e-13                 : 0
    faces with face-decomposition tet quality < 1e-15      : 3
    faces with concavity > 80  degrees                     : 0
    faces with skewness > 4   (internal) or 20  (boundary) : 0
    faces with interpolation weights (0..1)  < 0.02        : 0
    faces with volume ratio of neighbour cells < 0.01      : 0
    faces with face twist < 0.02                           : 0
    faces on cells with determinant < 0.001                : 0

Iteration 6
Moving mesh using displacement scaling : min:0  max:1
Checking faces in error :
    non-orthogonality > 65  degrees                        : 0
    faces with face pyramid volume < 1e-13                 : 0
    faces with face-decomposition tet quality < 1e-15      : 0
    faces with concavity > 80  degrees                     : 0
    faces with skewness > 4   (internal) or 20  (boundary) : 0
    faces with interpolation weights (0..1)  < 0.02        : 0
    faces with volume ratio of neighbour cells < 0.01      : 0
    faces with face twist < 0.02                           : 0
    faces on cells with determinant < 0.001                : 0
Successfully moved mesh
Moved mesh in = 742.65 s



Morph iteration 9
-----------------
Calculating patchDisplacement as distance to nearest surface point ...
Wanted displacement : average:1.63708e-05 min:5.91704e-12 max:0.0151578
Calculated surface displacement in = 1.51 s


Detecting near surfaces ...
Overriding nearest with intersection of close gaps at 16 out of 714768 points.
Overriding displacement on features :
   implicit features    : false
   explicit features    : true
   multi-patch features : false

Detected 0 baffle edges out of 1428850 edges.
Initially selected 4934 points out of 714768 for reverse attraction.
Selected 13613 points out of 714768 for reverse attraction.
Stringing feature edges : changed 37 points
Stringing feature edges : changed 0 points
Attraction:
     linear   : max:(0 0.0151578 0) avg:(-3.7579e-07 3.73085e-09 -1.11483e-06)
     feature  : max:(0.0430637 0.0431194 0) avg:(1.9115e-08 -2.80209e-09 1.99424e-07)
Feature analysis : total master points:714768 attraction to :
    feature point   : 15
    feature edge    : 4872
    nearest surface : 0
    rest            : 709881

--> FOAM Warning : Displacement (-2.33527e-06 -1.87323e-10 5.80668e-06) at mesh point 2839980 coord (-10.886 -1.27819e-05 3.28476) points through the surrounding patch faces
Smoothing displacement ...
Iteration 0
Iteration 10
Iteration 20
Displacement smoothed in = 240.29 s


Moving mesh ...

Iteration 0
Moving mesh using displacement scaling : min:1  max:1
Checking faces in error :
    non-orthogonality > 65  degrees                        : 2
    faces with face pyramid volume < 1e-13                 : 2
    faces with face-decomposition tet quality < 1e-15      : 34
    faces with concavity > 80  degrees                     : 0
    faces with skewness > 4   (internal) or 20  (boundary) : 0
    faces with interpolation weights (0..1)  < 0.02        : 0
    faces with volume ratio of neighbour cells < 0.01      : 0
    faces with face twist < 0.02                           : 0
    faces on cells with determinant < 0.001                : 0

Iteration 1
Moving mesh using displacement scaling : min:0.75  max:1
Checking faces in error :
    non-orthogonality > 65  degrees                        : 1
    faces with face pyramid volume < 1e-13                 : 2
    faces with face-decomposition tet quality < 1e-15      : 26
    faces with concavity > 80  degrees                     : 0
    faces with skewness > 4   (internal) or 20  (boundary) : 0
    faces with interpolation weights (0..1)  < 0.02        : 0
    faces with volume ratio of neighbour cells < 0.01      : 0
    faces with face twist < 0.02                           : 0
    faces on cells with determinant < 0.001                : 0

Iteration 2
Moving mesh using displacement scaling : min:0.5625  max:1
Checking faces in error :
    non-orthogonality > 65  degrees                        : 0
    faces with face pyramid volume < 1e-13                 : 0
    faces with face-decomposition tet quality < 1e-15      : 23
    faces with concavity > 80  degrees                     : 0
    faces with skewness > 4   (internal) or 20  (boundary) : 0
    faces with interpolation weights (0..1)  < 0.02        : 0
    faces with volume ratio of neighbour cells < 0.01      : 0
    faces with face twist < 0.02                           : 0
    faces on cells with determinant < 0.001                : 0

Iteration 3
Moving mesh using displacement scaling : min:0.421875  max:1
Checking faces in error :
    non-orthogonality > 65  degrees                        : 0
    faces with face pyramid volume < 1e-13                 : 0
    faces with face-decomposition tet quality < 1e-15      : 20
    faces with concavity > 80  degrees                     : 0
    faces with skewness > 4   (internal) or 20  (boundary) : 0
    faces with interpolation weights (0..1)  < 0.02        : 0
    faces with volume ratio of neighbour cells < 0.01      : 0
    faces with face twist < 0.02                           : 0
    faces on cells with determinant < 0.001                : 0

Iteration 4
Moving mesh using displacement scaling : min:0.316406  max:1
Checking faces in error :
    non-orthogonality > 65  degrees                        : 0
    faces with face pyramid volume < 1e-13                 : 0
    faces with face-decomposition tet quality < 1e-15      : 17
    faces with concavity > 80  degrees                     : 0
    faces with skewness > 4   (internal) or 20  (boundary) : 0
    faces with interpolation weights (0..1)  < 0.02        : 0
    faces with volume ratio of neighbour cells < 0.01      : 0
    faces with face twist < 0.02                           : 0
    faces on cells with determinant < 0.001                : 0

Iteration 5
Displacement scaling for error reduction set to 0.
Moving mesh using displacement scaling : min:0.237305  max:1
Checking faces in error :
    non-orthogonality > 65  degrees                        : 0
    faces with face pyramid volume < 1e-13                 : 0
    faces with face-decomposition tet quality < 1e-15      : 9
    faces with concavity > 80  degrees                     : 0
    faces with skewness > 4   (internal) or 20  (boundary) : 0
    faces with interpolation weights (0..1)  < 0.02        : 0
    faces with volume ratio of neighbour cells < 0.01      : 0
    faces with face twist < 0.02                           : 0
    faces on cells with determinant < 0.001                : 0

Iteration 6
Moving mesh using displacement scaling : min:0  max:1
Checking faces in error :
    non-orthogonality > 65  degrees                        : 0
    faces with face pyramid volume < 1e-13                 : 0
    faces with face-decomposition tet quality < 1e-15      : 0
    faces with concavity > 80  degrees                     : 0
    faces with skewness > 4   (internal) or 20  (boundary) : 0
    faces with interpolation weights (0..1)  < 0.02        : 0
    faces with volume ratio of neighbour cells < 0.01      : 0
    faces with face twist < 0.02                           : 0
    faces on cells with determinant < 0.001                : 0
Successfully moved mesh
Moved mesh in = 742.87 s


Repatching faces according to nearest surface ...
Repatched 0 faces in = 5.04 s


Edge intersection testing:
    Number of edges             : 146392923
    Number of edges to retest   : 3780541
    Number of intersected edges : 714084
Merging 19929 sets of faces.

Edge intersection testing:
    Number of edges             : 146371247
    Number of edges to retest   : 79854
    Number of intersected edges : 692408

Undo iteration 0
----------------
Checking faces in error :
    non-orthogonality > 65  degrees                        : 0
    faces with face pyramid volume < 1e-13                 : 0
    faces with face-decomposition tet quality < 1e-15      : 0
    faces with concavity > 80  degrees                     : 0
    faces with skewness > 4   (internal) or 20  (boundary) : 0
    faces with interpolation weights (0..1)  < 0.02        : 0
    faces with volume ratio of neighbour cells < 0.01      : 0
    faces with face twist < 0.02                           : 0
    faces on cells with determinant < 0.001                : 0

Merging all points on surface that
- are used by only two boundary faces and
- make an angle with a cosine of more than 0.965926.

Removing 18054 straight edge points ...

Edge intersection testing:
    Number of edges             : 146371247
    Number of edges to retest   : 76620
    Number of intersected edges : 692408

Undo iteration 0
----------------
Checking faces in error :
    non-orthogonality > 65  degrees                        : 0
    faces with face pyramid volume < 1e-13                 : 0
    faces with face-decomposition tet quality < 1e-15      : 0
    faces with concavity > 80  degrees                     : 0
    faces with skewness > 4   (internal) or 20  (boundary) : 0
    faces with interpolation weights (0..1)  < 0.02        : 0
    faces with volume ratio of neighbour cells < 0.01      : 0
    faces with face twist < 0.02                           : 0
    faces on cells with determinant < 0.001                : 0
Snapped mesh : cells:48384351  faces:146371247  points:49606085
Cells per refinement level:
    0	113536
    1	371296
    2	910720
    3	3550144
    4	10203492
    5	11202552
    6	22032611
Writing mesh to time 2
Wrote mesh in = 799.19 s.
Mesh snapped in = 8831.94 s.

Shrinking and layer addition phase
----------------------------------

Using mesh parameters 
{
    maxNonOrtho     65;
    maxBoundarySkewness 20;
    maxInternalSkewness 4;
    maxConcave      80;
    minVol          1e-13;
    minTetQuality   1e-15;
    minArea         -1;
    minTwist        0.02;
    minDeterminant  0.001;
    minFaceWeight   0.02;
    minVolRatio     0.01;
    minTriangleTwist -1;
    nSmoothScale    4;
    errorReduction  0.75;
}



Merging all faces of a cell
---------------------------
    - which are on the same patch
    - which make an angle < 60 degrees
      (cos:0.5)
    - as long as the resulting face doesn't become concave by more than 90 degrees
      (0=straight, 180=fully concave)

Merging 75 sets of faces.

Edge intersection testing:
    Number of edges             : 146371169
    Number of edges to retest   : 316
    Number of intersected edges : 692328

Undo iteration 0
----------------
Checking faces in error :
    non-orthogonality > 65  degrees                        : 0
    faces with face pyramid volume < 1e-13                 : 0
    faces with face-decomposition tet quality < 1e-15      : 12
    faces with concavity > 80  degrees                     : 0
    faces with skewness > 4   (internal) or 20  (boundary) : 0
    faces with interpolation weights (0..1)  < 0.02        : 0
    faces with volume ratio of neighbour cells < 0.01      : 0
    faces with face twist < 0.02                           : 0
    faces on cells with determinant < 0.001                : 0
Masters that need to be restored:12
Edge intersection testing:
    Number of edges             : 146371181
    Number of edges to retest   : 72
    Number of intersected edges : 692340


Undo iteration 1
----------------
Checking faces in error :
    non-orthogonality > 65  degrees                        : 0
    faces with face pyramid volume < 1e-13                 : 0
    faces with face-decomposition tet quality < 1e-15      : 0
    faces with concavity > 80  degrees                     : 0
    faces with skewness > 4   (internal) or 20  (boundary) : 0
    faces with interpolation weights (0..1)  < 0.02        : 0
    faces with volume ratio of neighbour cells < 0.01      : 0
    faces with face twist < 0.02                           : 0
    faces on cells with determinant < 0.001                : 0

Merging all points on surface that
- are used by only two boundary faces and
- make an angle with a cosine of more than 0.5.

Removing 54 straight edge points ...

Edge intersection testing:
    Number of edges             : 146371181
    Number of edges to retest   : 319
    Number of intersected edges : 692316

Undo iteration 0
----------------
Checking faces in error :
    non-orthogonality > 65  degrees                        : 0
    faces with face pyramid volume < 1e-13                 : 0
    faces with face-decomposition tet quality < 1e-15      : 0
    faces with concavity > 80  degrees                     : 0
    faces with skewness > 4   (internal) or 20  (boundary) : 0
    faces with interpolation weights (0..1)  < 0.02        : 0
    faces with volume ratio of neighbour cells < 0.01      : 0
    faces with face twist < 0.02                           : 1
    faces on cells with determinant < 0.001                : 0
Detected 1 error faces on boundaries that have been merged. These will be restored to their original faces.

Edge intersection testing:
    Number of edges             : 146371181
    Number of edges to retest   : 5
    Number of intersected edges : 692316

Undo iteration 1
----------------
Checking faces in error :
    non-orthogonality > 65  degrees                        : 0
    faces with face pyramid volume < 1e-13                 : 0
    faces with face-decomposition tet quality < 1e-15      : 0
    faces with concavity > 80  degrees                     : 0
    faces with skewness > 4   (internal) or 20  (boundary) : 0
    faces with interpolation weights (0..1)  < 0.02        : 0
    faces with volume ratio of neighbour cells < 0.01      : 0
    faces with face twist < 0.02                           : 0
    faces on cells with determinant < 0.001                : 0

Checking mesh manifoldness ...

Checking initial mesh ...
Checking faces in error :
    non-orthogonality > 65  degrees                        : 0
    faces with face pyramid volume < 1e-13                 : 0
    faces with face-decomposition tet quality < 1e-15      : 0
    faces with concavity > 80  degrees                     : 0
    faces with skewness > 4   (internal) or 20  (boundary) : 0
    faces with interpolation weights (0..1)  < 0.02        : 0
    faces with volume ratio of neighbour cells < 0.01      : 0
    faces with face twist < 0.02                           : 0
    faces on cells with determinant < 0.001                : 0
Detected 0 illegal faces (concave, zero area or negative cell pyramid volume)

Adding in total 0 inter-processor patches to handle extrusion of non-manifold processor boundaries.

Handling points with inconsistent layer specification ...

Handling non-manifold points ...

Checking patch manifoldness ...
Outside of local patch is multiply connected across edges or points at 0 points.
Set displacement to zero for all 0 non-manifold points

Handling feature edges ...

Handling cells with warped patch faces ...
Set displacement to zero on 6 warped faces since layer would be > 0.5 of the size of the bounding box.

patch    faces    layers avg thickness[m]
                         near-wall overall
-----    -----    ------ --------- -------
gtsModel 665492   10     0.000906  0.0235  

Selecting externalDisplacementMeshMover displacementMedialAxis
displacementMedialAxis : Calculating distance to Medial Axis ...
displacementMedialAxis : Smoothing normals ...
    Iteration 0   residual 0.00303052
displacementMedialAxis : Inserting points on patch frontAndBack if angle to nearest layer patch > 30 degrees.
displacementMedialAxis : Inserting points on patch inletBB if angle to nearest layer patch > 30 degrees.
displacementMedialAxis : Inserting points on patch outletBB if angle to nearest layer patch > 30 degrees.
displacementMedialAxis : Inserting points on patch lowerWallBB if angle to nearest layer patch > 30 degrees.
displacementMedialAxis : Inserting points on patch upperWallBB if angle to nearest layer patch > 30 degrees.
displacementMedialAxis : Inserting points on patch inlet if angle to nearest layer patch > 30 degrees.
displacementMedialAxis : Inserting points on patch outlet if angle to nearest layer patch > 30 degrees.
displacementMedialAxis : Inserting points on patch lateral if angle to nearest layer patch > 30 degrees.
displacementMedialAxis : Inserting points on patch top if angle to nearest layer patch > 30 degrees.
displacementMedialAxis : Inserting points on patch bottomNoSlip if angle to nearest layer patch > 30 degrees.
displacementMedialAxis : Inserting points on patch bottomSlip if angle to nearest layer patch > 30 degrees.
displacementMedialAxis : Smoothing normals in interior ...
    Iteration 0   residual 0.00952435

Layer addition iteration 0
--------------------------

Determining displacement for added points according to pointNormal ...
Detected 0 points with point normal pointing through faces.
Reset displacement at 0 points to average of surrounding points.

displacementMedialAxis : Smoothing using Medial Axis ...
displacementMedialAxis : Reducing layer thickness at 0 nodes where thickness to medial axis distance is large 
displacementMedialAxis : Removing isolated regions ...
displacementMedialAxis : Number of isolated points extrusion stopped : 16
displacementMedialAxis : Smoothing field ...
    Iteration 0   residual 1.68944e-07
displacementMedialAxis : Moving mesh ...
displacementMedialAxis : Iteration 0
Moving mesh using displacement scaling : min:1  max:1
Checking faces in error :
    non-orthogonality > 65  degrees                        : 59
    faces with face pyramid volume < 1e-13                 : 4
    faces with face-decomposition tet quality < 1e-15      : 119
    faces with concavity > 80  degrees                     : 3
    faces with skewness > 4   (internal) or 20  (boundary) : 0
    faces with interpolation weights (0..1)  < 0.02        : 5
    faces with volume ratio of neighbour cells < 0.01      : 0
    faces with face twist < 0.02                           : 0
    faces on cells with determinant < 0.001                : 5
displacementMedialAxis : Iteration 1
Moving mesh using displacement scaling : min:0.75  max:1
Checking faces in error :
    non-orthogonality > 65  degrees                        : 2
    faces with face pyramid volume < 1e-13                 : 0
    faces with face-decomposition tet quality < 1e-15      : 39
    faces with concavity > 80  degrees                     : 0
    faces with skewness > 4   (internal) or 20  (boundary) : 0
    faces with interpolation weights (0..1)  < 0.02        : 0
    faces with volume ratio of neighbour cells < 0.01      : 0
    faces with face twist < 0.02                           : 1
    faces on cells with determinant < 0.001                : 0
displacementMedialAxis : Iteration 2
Moving mesh using displacement scaling : min:0.5625  max:1
Checking faces in error :
    non-orthogonality > 65  degrees                        : 0
    faces with face pyramid volume < 1e-13                 : 0
    faces with face-decomposition tet quality < 1e-15      : 29
    faces with concavity > 80  degrees                     : 0
    faces with skewness > 4   (internal) or 20  (boundary) : 0
    faces with interpolation weights (0..1)  < 0.02        : 0
    faces with volume ratio of neighbour cells < 0.01      : 0
    faces with face twist < 0.02                           : 1
    faces on cells with determinant < 0.001                : 0
displacementMedialAxis : Iteration 3
displacementMedialAxis : Displacement scaling for error reduction set to 0.
Moving mesh using displacement scaling : min:0.421875  max:1
Checking faces in error :
    non-orthogonality > 65  degrees                        : 0
    faces with face pyramid volume < 1e-13                 : 0
    faces with face-decomposition tet quality < 1e-15      : 17
    faces with concavity > 80  degrees                     : 0
    faces with skewness > 4   (internal) or 20  (boundary) : 0
    faces with interpolation weights (0..1)  < 0.02        : 0
    faces with volume ratio of neighbour cells < 0.01      : 0
    faces with face twist < 0.02                           : 0
    faces on cells with determinant < 0.001                : 0
displacementMedialAxis : Iteration 4
Moving mesh using displacement scaling : min:0  max:1
Checking faces in error :
    non-orthogonality > 65  degrees                        : 0
    faces with face pyramid volume < 1e-13                 : 0
    faces with face-decomposition tet quality < 1e-15      : 0
    faces with concavity > 80  degrees                     : 0
    faces with skewness > 4   (internal) or 20  (boundary) : 0
    faces with interpolation weights (0..1)  < 0.02        : 0
    faces with volume ratio of neighbour cells < 0.01      : 0
    faces with face twist < 0.02                           : 0
    faces on cells with determinant < 0.001                : 0
displacementMedialAxis : Successfully moved mesh
displacementMedialAxis : Finished moving mesh ...
truncateDisplacement : Unextruded 0 faces due to non-consecutive vertices being extruded.
truncateDisplacement : Unextruded 0 faces due to stringed edges with inconsistent extrusion.

Setting up information for layer truncation ...

Checking mesh with layer ...
Checking faces in error :
    non-orthogonality > 65  degrees                        : 7
    faces with face pyramid volume < 1e-13                 : 0
    faces with face-decomposition tet quality < 1e-15      : 247
    faces with concavity > 80  degrees                     : 0
    faces with skewness > 4   (internal) or 20  (boundary) : 0
    faces with interpolation weights (0..1)  < 0.02        : 0
    faces with volume ratio of neighbour cells < 0.01      : 0
    faces with face twist < 0.02                           : 0
    faces on cells with determinant < 0.001                : 0
Detected 254 illegal faces (concave, zero area or negative cell pyramid volume)
[...]
Added 6638064 out of 6654920 cells (99.7467%).


Layer addition iteration 1
--------------------------

Determining displacement for added points according to pointNormal ...
Detected 0 points with point normal pointing through faces.
Reset displacement at 0 points to average of surrounding points.

displacementMedialAxis : Smoothing using Medial Axis ...
displacementMedialAxis : Reducing layer thickness at 0 nodes where thickness to medial axis distance is large 
displacementMedialAxis : Removing isolated regions ...
displacementMedialAxis : Number of isolated points extrusion stopped : 156
displacementMedialAxis : Smoothing field ...
    Iteration 0   residual 2.63257e-06
displacementMedialAxis : Moving mesh ...
displacementMedialAxis : Iteration 0
Moving mesh using displacement scaling : min:1  max:1
Checking faces in error :
    non-orthogonality > 65  degrees                        : 1092
    faces with face pyramid volume < 1e-13                 : 13
    faces with face-decomposition tet quality < 1e-15      : 1412
    faces with concavity > 80  degrees                     : 2
    faces with skewness > 4   (internal) or 20  (boundary) : 0
    faces with interpolation weights (0..1)  < 0.02        : 6
    faces with volume ratio of neighbour cells < 0.01      : 3
    faces with face twist < 0.02                           : 0
    faces on cells with determinant < 0.001                : 95
displacementMedialAxis : Iteration 1
Moving mesh using displacement scaling : min:0.75  max:1
Checking faces in error :
    non-orthogonality > 65  degrees                        : 51
    faces with face pyramid volume < 1e-13                 : 0
    faces with face-decomposition tet quality < 1e-15      : 147
    faces with concavity > 80  degrees                     : 0
    faces with skewness > 4   (internal) or 20  (boundary) : 0
    faces with interpolation weights (0..1)  < 0.02        : 0
    faces with volume ratio of neighbour cells < 0.01      : 1
    faces with face twist < 0.02                           : 0
    faces on cells with determinant < 0.001                : 0
displacementMedialAxis : Iteration 2
Moving mesh using displacement scaling : min:0.5625  max:1
Checking faces in error :
    non-orthogonality > 65  degrees                        : 3
    faces with face pyramid volume < 1e-13                 : 0
    faces with face-decomposition tet quality < 1e-15      : 20
    faces with concavity > 80  degrees                     : 0
    faces with skewness > 4   (internal) or 20  (boundary) : 0
    faces with interpolation weights (0..1)  < 0.02        : 0
    faces with volume ratio of neighbour cells < 0.01      : 0
    faces with face twist < 0.02                           : 0
    faces on cells with determinant < 0.001                : 0
displacementMedialAxis : Iteration 3
displacementMedialAxis : Displacement scaling for error reduction set to 0.
Moving mesh using displacement scaling : min:0.421875  max:1
Checking faces in error :
    non-orthogonality > 65  degrees                        : 0
    faces with face pyramid volume < 1e-13                 : 0
    faces with face-decomposition tet quality < 1e-15      : 8
    faces with concavity > 80  degrees                     : 0
    faces with skewness > 4   (internal) or 20  (boundary) : 0
    faces with interpolation weights (0..1)  < 0.02        : 0
    faces with volume ratio of neighbour cells < 0.01      : 0
    faces with face twist < 0.02                           : 0
    faces on cells with determinant < 0.001                : 0
displacementMedialAxis : Iteration 4
Moving mesh using displacement scaling : min:0  max:1
Checking faces in error :
    non-orthogonality > 65  degrees                        : 7
    faces with face pyramid volume < 1e-13                 : 0
    faces with face-decomposition tet quality < 1e-15      : 5
    faces with concavity > 80  degrees                     : 0
    faces with skewness > 4   (internal) or 20  (boundary) : 0
    faces with interpolation weights (0..1)  < 0.02        : 0
    faces with volume ratio of neighbour cells < 0.01      : 0
    faces with face twist < 0.02                           : 0
    faces on cells with determinant < 0.001                : 0
displacementMedialAxis : Iteration 5
Moving mesh using displacement scaling : min:0  max:1
Checking faces in error :
    non-orthogonality > 65  degrees                        : 13
    faces with face pyramid volume < 1e-13                 : 0
    faces with face-decomposition tet quality < 1e-15      : 3
    faces with concavity > 80  degrees                     : 0
    faces with skewness > 4   (internal) or 20  (boundary) : 0
    faces with interpolation weights (0..1)  < 0.02        : 0
    faces with volume ratio of neighbour cells < 0.01      : 0
    faces with face twist < 0.02                           : 0
    faces on cells with determinant < 0.001                : 0
displacementMedialAxis : Finished moving mesh ...
truncateDisplacement : Unextruded 0 faces due to non-consecutive vertices being extruded.
truncateDisplacement : Unextruded 0 faces due to stringed edges with inconsistent extrusion.

Setting up information for layer truncation ...

Checking mesh with layer ...
Checking faces in error :
    non-orthogonality > 65  degrees                        : 13
    faces with face pyramid volume < 1e-13                 : 0
    faces with face-decomposition tet quality < 1e-15      : 15
    faces with concavity > 80  degrees                     : 0
    faces with skewness > 4   (internal) or 20  (boundary) : 0
    faces with interpolation weights (0..1)  < 0.02        : 0
    faces with volume ratio of neighbour cells < 0.01      : 0
    faces with face twist < 0.02                           : 0
    faces on cells with determinant < 0.001                : 0
Detected 28 illegal faces (concave, zero area or negative cell pyramid volume)
Extruding 665302 out of 665492 faces (99.9714%). Removed extrusion at 8 faces.
Added 6617927 out of 6654920 cells (99.4441%).


Layer addition iteration 2
--------------------------

Determining displacement for added points according to pointNormal ...
Detected 0 points with point normal pointing through faces.
Reset displacement at 0 points to average of surrounding points.

displacementMedialAxis : Smoothing using Medial Axis ...
displacementMedialAxis : Reducing layer thickness at 0 nodes where thickness to medial axis distance is large 
displacementMedialAxis : Removing isolated regions ...
displacementMedialAxis : Number of isolated points extrusion stopped : 164
displacementMedialAxis : Smoothing field ...
    Iteration 0   residual 3.48373e-06
displacementMedialAxis : Moving mesh ...
displacementMedialAxis : Iteration 0
Moving mesh using displacement scaling : min:1  max:1
Checking faces in error :
    non-orthogonality > 65  degrees                        : 1753
    faces with face pyramid volume < 1e-13                 : 13
    faces with face-decomposition tet quality < 1e-15      : 1286
    faces with concavity > 80  degrees                     : 1
    faces with skewness > 4   (internal) or 20  (boundary) : 0
    faces with interpolation weights (0..1)  < 0.02        : 8
    faces with volume ratio of neighbour cells < 0.01      : 1
    faces with face twist < 0.02                           : 0
    faces on cells with determinant < 0.001                : 83
displacementMedialAxis : Iteration 1
Moving mesh using displacement scaling : min:0.75  max:1
Checking faces in error :
    non-orthogonality > 65  degrees                        : 31
    faces with face pyramid volume < 1e-13                 : 0
    faces with face-decomposition tet quality < 1e-15      : 61
    faces with concavity > 80  degrees                     : 0
    faces with skewness > 4   (internal) or 20  (boundary) : 0
    faces with interpolation weights (0..1)  < 0.02        : 0
    faces with volume ratio of neighbour cells < 0.01      : 1
    faces with face twist < 0.02                           : 0
    faces on cells with determinant < 0.001                : 0
displacementMedialAxis : Iteration 2
Moving mesh using displacement scaling : min:0.5625  max:1
Checking faces in error :
    non-orthogonality > 65  degrees                        : 0
    faces with face pyramid volume < 1e-13                 : 0
    faces with face-decomposition tet quality < 1e-15      : 10
    faces with concavity > 80  degrees                     : 0
    faces with skewness > 4   (internal) or 20  (boundary) : 0
    faces with interpolation weights (0..1)  < 0.02        : 0
    faces with volume ratio of neighbour cells < 0.01      : 0
    faces with face twist < 0.02                           : 0
    faces on cells with determinant < 0.001                : 0
displacementMedialAxis : Iteration 3
displacementMedialAxis : Displacement scaling for error reduction set to 0.
Moving mesh using displacement scaling : min:0.421875  max:1
Checking faces in error :
    non-orthogonality > 65  degrees                        : 0
    faces with face pyramid volume < 1e-13                 : 0
    faces with face-decomposition tet quality < 1e-15      : 4
    faces with concavity > 80  degrees                     : 0
    faces with skewness > 4   (internal) or 20  (boundary) : 0
    faces with interpolation weights (0..1)  < 0.02        : 0
    faces with volume ratio of neighbour cells < 0.01      : 0
    faces with face twist < 0.02                           : 0
    faces on cells with determinant < 0.001                : 0
displacementMedialAxis : Iteration 4
Moving mesh using displacement scaling : min:0  max:1
Checking faces in error :
    non-orthogonality > 65  degrees                        : 7
    faces with face pyramid volume < 1e-13                 : 0
    faces with face-decomposition tet quality < 1e-15      : 5
    faces with concavity > 80  degrees                     : 0
    faces with skewness > 4   (internal) or 20  (boundary) : 0
    faces with interpolation weights (0..1)  < 0.02        : 0
    faces with volume ratio of neighbour cells < 0.01      : 0
    faces with face twist < 0.02                           : 0
    faces on cells with determinant < 0.001                : 0
displacementMedialAxis : Iteration 5
Moving mesh using displacement scaling : min:0  max:1
Checking faces in error :
    non-orthogonality > 65  degrees                        : 13
    faces with face pyramid volume < 1e-13                 : 0
    faces with face-decomposition tet quality < 1e-15      : 3
    faces with concavity > 80  degrees                     : 0
    faces with skewness > 4   (internal) or 20  (boundary) : 0
    faces with interpolation weights (0..1)  < 0.02        : 0
    faces with volume ratio of neighbour cells < 0.01      : 0
    faces with face twist < 0.02                           : 0
    faces on cells with determinant < 0.001                : 0
displacementMedialAxis : Finished moving mesh ...
truncateDisplacement : Unextruded 0 faces due to non-consecutive vertices being extruded.
truncateDisplacement : Unextruded 0 faces due to stringed edges with inconsistent extrusion.

Setting up information for layer truncation ...

Checking mesh with layer ...
Checking faces in error :
    non-orthogonality > 65  degrees                        : 13
    faces with face pyramid volume < 1e-13                 : 0
    faces with face-decomposition tet quality < 1e-15      : 6
    faces with concavity > 80  degrees                     : 0
    faces with skewness > 4   (internal) or 20  (boundary) : 0
    faces with interpolation weights (0..1)  < 0.02        : 0
    faces with volume ratio of neighbour cells < 0.01      : 0
    faces with face twist < 0.02                           : 0
    faces on cells with determinant < 0.001                : 0
Detected 19 illegal faces (concave, zero area or negative cell pyramid volume)
Extruding 665235 out of 665492 faces (99.9614%). Removed extrusion at 3 faces.
Added 6614030 out of 6654920 cells (99.3856%).


Layer addition iteration 3
--------------------------

Determining displacement for added points according to pointNormal ...
Detected 0 points with point normal pointing through faces.
Reset displacement at 0 points to average of surrounding points.

displacementMedialAxis : Smoothing using Medial Axis ...
displacementMedialAxis : Reducing layer thickness at 0 nodes where thickness to medial axis distance is large 
displacementMedialAxis : Removing isolated regions ...
displacementMedialAxis : Number of isolated points extrusion stopped : 4
displacementMedialAxis : Smoothing field ...
    Iteration 0   residual 3.51212e-06
displacementMedialAxis : Moving mesh ...
displacementMedialAxis : Iteration 0
Moving mesh using displacement scaling : min:1  max:1
Checking faces in error :
    non-orthogonality > 65  degrees                        : 1752
    faces with face pyramid volume < 1e-13                 : 13
    faces with face-decomposition tet quality < 1e-15      : 1238
    faces with concavity > 80  degrees                     : 1
    faces with skewness > 4   (internal) or 20  (boundary) : 0
    faces with interpolation weights (0..1)  < 0.02        : 8
    faces with volume ratio of neighbour cells < 0.01      : 1
    faces with face twist < 0.02                           : 0
    faces on cells with determinant < 0.001                : 83
displacementMedialAxis : Iteration 1
Moving mesh using displacement scaling : min:0.75  max:1
Checking faces in error :
    non-orthogonality > 65  degrees                        : 31
    faces with face pyramid volume < 1e-13                 : 0
    faces with face-decomposition tet quality < 1e-15      : 61
    faces with concavity > 80  degrees                     : 0
    faces with skewness > 4   (internal) or 20  (boundary) : 0
    faces with interpolation weights (0..1)  < 0.02        : 0
    faces with volume ratio of neighbour cells < 0.01      : 1
    faces with face twist < 0.02                           : 0
    faces on cells with determinant < 0.001                : 0
displacementMedialAxis : Iteration 2
Moving mesh using displacement scaling : min:0.5625  max:1
Checking faces in error :
    non-orthogonality > 65  degrees                        : 0
    faces with face pyramid volume < 1e-13                 : 0
    faces with face-decomposition tet quality < 1e-15      : 10
    faces with concavity > 80  degrees                     : 0
    faces with skewness > 4   (internal) or 20  (boundary) : 0
    faces with interpolation weights (0..1)  < 0.02        : 0
    faces with volume ratio of neighbour cells < 0.01      : 0
    faces with face twist < 0.02                           : 0
    faces on cells with determinant < 0.001                : 0
displacementMedialAxis : Iteration 3
displacementMedialAxis : Displacement scaling for error reduction set to 0.
Moving mesh using displacement scaling : min:0.421875  max:1
Checking faces in error :
    non-orthogonality > 65  degrees                        : 0
    faces with face pyramid volume < 1e-13                 : 0
    faces with face-decomposition tet quality < 1e-15      : 4
    faces with concavity > 80  degrees                     : 0
    faces with skewness > 4   (internal) or 20  (boundary) : 0
    faces with interpolation weights (0..1)  < 0.02        : 0
    faces with volume ratio of neighbour cells < 0.01      : 0
    faces with face twist < 0.02                           : 0
    faces on cells with determinant < 0.001                : 0
displacementMedialAxis : Iteration 4
Moving mesh using displacement scaling : min:0  max:1
Checking faces in error :
    non-orthogonality > 65  degrees                        : 7
    faces with face pyramid volume < 1e-13                 : 0
    faces with face-decomposition tet quality < 1e-15      : 5
    faces with concavity > 80  degrees                     : 0
    faces with skewness > 4   (internal) or 20  (boundary) : 0
    faces with interpolation weights (0..1)  < 0.02        : 0
    faces with volume ratio of neighbour cells < 0.01      : 0
    faces with face twist < 0.02                           : 0
    faces on cells with determinant < 0.001                : 0
displacementMedialAxis : Iteration 5
Moving mesh using displacement scaling : min:0  max:1
Checking faces in error :
    non-orthogonality > 65  degrees                        : 13
    faces with face pyramid volume < 1e-13                 : 0
    faces with face-decomposition tet quality < 1e-15      : 3
    faces with concavity > 80  degrees                     : 0
    faces with skewness > 4   (internal) or 20  (boundary) : 0
    faces with interpolation weights (0..1)  < 0.02        : 0
    faces with volume ratio of neighbour cells < 0.01      : 0
    faces with face twist < 0.02                           : 0
    faces on cells with determinant < 0.001                : 0
displacementMedialAxis : Finished moving mesh ...
truncateDisplacement : Unextruded 0 faces due to non-consecutive vertices being extruded.
truncateDisplacement : Unextruded 0 faces due to stringed edges with inconsistent extrusion.

Setting up information for layer truncation ...

Checking mesh with layer ...
Checking faces in error :
    non-orthogonality > 65  degrees                        : 13
    faces with face pyramid volume < 1e-13                 : 0
    faces with face-decomposition tet quality < 1e-15      : 3
    faces with concavity > 80  degrees                     : 0
    faces with skewness > 4   (internal) or 20  (boundary) : 0
    faces with interpolation weights (0..1)  < 0.02        : 0
    faces with volume ratio of neighbour cells < 0.01      : 0
    faces with face twist < 0.02                           : 0
    faces on cells with determinant < 0.001                : 0
Detected 16 illegal faces (concave, zero area or negative cell pyramid volume)
Extruding 665235 out of 665492 faces (99.9614%). Removed extrusion at 0 faces.
Added 6613658 out of 6654920 cells (99.38%).
Edge intersection testing:
    Number of edges             : 166234009
    Number of edges to retest   : 0
    Number of intersected edges : 7305961
Writing 6613658 added cells to cellSet addedCells
Writing 5948423 faces inside added layer to faceSet layerFaces

Writing fields with layer information:
    nSurfaceLayers    : actual number of layers
    thickness         : overall layer thickness
    thicknessFraction : overall layer thickness (fraction of desired thickness)


patch    faces    layers   overall thickness
                           [m]       [%]
-----    -----    ------   ---       ---
gtsModel 665492   9.94     0.0235    99.8    


Removing zero-sized patches:
    frontAndBack type patch at position 0
    inletBB type patch at position 1
    outletBB type patch at position 2
    top type patch at position 9
    bottomNoSlip type wall at position 10
    bottomSlip type wall at position 11

Layer mesh : cells:54998009  faces:166234009  points:56241513
Cells per refinement level:
    0	113536
    1	371296
    2	910720
    3	3550144
    4	10203492
    5	11202552
    6	28646269
Writing mesh to time 3
Wrote mesh in = 6717.67 s.
Layers added in = 6717.67 s.
Checking final mesh ...
Checking faces in error :
    non-orthogonality > 65  degrees                        : 13
    faces with face pyramid volume < 1e-13                 : 0
    faces with face-decomposition tet quality < 1e-15      : 3
    faces with concavity > 80  degrees                     : 0
    faces with skewness > 4   (internal) or 20  (boundary) : 0
    faces with interpolation weights (0..1)  < 0.02        : 0
    faces with volume ratio of neighbour cells < 0.01      : 0
    faces with face twist < 0.02                           : 0
    faces on cells with determinant < 0.001                : 0
Finished meshing with 16 illegal faces (concave, zero area or negative cell pyramid volume)
Finished meshing in = 20736.6 s.
End

