/*---------------------------------------------------------------------------*\
  =========                 |
  \\      /  F ield         | OpenFOAM: The Open Source CFD Toolbox
   \\    /   O peration     | Website:  https://openfoam.org
    \\  /    A nd           | Version:  8
     \\/     M anipulation  |
\*---------------------------------------------------------------------------*/
Build  : 8
Exec   : checkMesh
Date   : Nov 11 2022
Time   : 16:15:44
Host   : "cluster62"
PID    : 81747
I/O    : uncollated
Case   : /share/storage/finzeo/Mallas/GTSRao/OF1
nProcs : 1
sigFpe : Enabling floating point exception trapping (FOAM_SIGFPE).
fileModificationChecking : Monitoring run-time modified files using timeStampMaster (fileModificationSkew 10)
allowSystemOperations : Allowing user-supplied system call operations

// * * * * * * * * * * * * * * * * * * * * * * * * * * * * * * * * * * * * * //
Create time

Create polyMesh for time = 0

Time = 0

Mesh stats
    points:           10957556
    faces:            31895722
    internal faces:   31504544
    cells:            10470935
    faces per cell:   6.05488
    boundary patches: 6
    point zones:      0
    face zones:       0
    cell zones:       0

Overall number of cells of each type:
    hexahedra:     10215085
    prisms:        12908
    wedges:        0
    pyramids:      0
    tet wedges:    0
    tetrahedra:    0
    polyhedra:     242942
    Breakdown of polyhedra by number of faces:
        faces   number of cells
            5   164
            6   26945
            7   54068
            8   769
            9   145004
           10   198
           12   15288
           15   494
           18   12

Checking topology...
    Boundary definition OK.
    Cell to face addressing OK.
    Point usage OK.
    Upper triangular ordering OK.
    Face vertices OK.
    Number of regions: 1 (OK).

Checking patch topology for multiply connected surfaces...
                   Patch    Faces   Points                  Surface topology
            frontAndBack    30444    31080  ok (non-closed singly connected)
                   inlet     3540     3660  ok (non-closed singly connected)
                  outlet     3540     3660  ok (non-closed singly connected)
               lowerWall    92586    93719  ok (non-closed singly connected)
               upperWall    15480    15799  ok (non-closed singly connected)
                gtsModel   245588   248321      ok (closed singly connected)

Checking geometry...
    Overall domain bounding box (-8.1144 -2.254 -0.063112) (11.27 2.254 4.0572)
    Mesh has 3 geometric (non-empty/wedge) directions (1 1 1)
    Mesh has 3 solution (non-empty) directions (1 1 1)
    Boundary openness (4.84238e-16 -1.64097e-15 -4.41622e-13) OK.
    Max cell openness = 4.61122e-16 OK.
    Max aspect ratio = 26.2337 OK.
    Minimum face area = 1.60361e-07. Maximum face area = 0.00847225.  Face area magnitudes OK.
    Min volume = 3.30138e-10. Max volume = 0.000519956.  Total volume = 359.698.  Cell volumes OK.
    Mesh non-orthogonality Max: 64.9505 average: 5.70434
    Non-orthogonality check OK.
    Face pyramids OK.
    Max skewness = 2.45869 OK.
    Coupled point location match (average 0) OK.

Mesh OK.

End

