/*---------------------------------------------------------------------------*\
  =========                 |
  \\      /  F ield         | OpenFOAM: The Open Source CFD Toolbox
   \\    /   O peration     | Website:  https://openfoam.org
    \\  /    A nd           | Version:  8
     \\/     M anipulation  |
\*---------------------------------------------------------------------------*/
Build  : 8
Exec   : renumberMesh -latestTime
Date   : Nov 11 2022
Time   : 16:15:42
Host   : "cluster62"
PID    : 81602
I/O    : uncollated
Case   : /share/storage/finzeo/Mallas/GTSRao/OF1
nProcs : 1
sigFpe : Enabling floating point exception trapping (FOAM_SIGFPE).
fileModificationChecking : Monitoring run-time modified files using timeStampMaster (fileModificationSkew 10)
allowSystemOperations : Allowing user-supplied system call operations

// * * * * * * * * * * * * * * * * * * * * * * * * * * * * * * * * * * * * * //
Create time

Create mesh for time = 0

Mesh size: 10470935
Before renumbering :
    band           : 10092727
    profile        : 2.29956e+12

Using default renumberMethod.

Selecting renumberMethod CuthillMcKee

Reading geometric fields

Reading volScalarField p
