/*---------------------------------------------------------------------------*\
| =========                 |                                                 |
| \\      /  F ield         | OpenFOAM: The Open Source CFD Toolbox           |
|  \\    /   O peration     | Version:  v1812                                 |
|   \\  /    A nd           | Web:      www.OpenFOAM.com                      |
|    \\/     M anipulation  |                                                 |
\*---------------------------------------------------------------------------*/
Build  : v1812 OPENFOAM=1812
Arch   : "LSB;label=32;scalar=64"
Exec   : snappyHexMesh -parallel -decomposeParDict system/decomposeParDict.60 -dict system/snappyHexMeshDict
Date   : Mar 20 2023
Time   : 20:43:08
Host   : compute-0-17.local
PID    : 72114
I/O    : uncollated
Case   : /share/storage/finzeo/Mallas/test/GTS_ofcom3cont
nProcs : 60
Hosts  :
(
    (compute-0-17.local 20)
    (compute-0-18.local 20)
    (compute-0-19.local 20)
)
Pstream initialized with:
    floatTransfer      : 0
    nProcsSimpleSum    : 0
    commsType          : nonBlocking
    polling iterations : 0
trapFpe: Floating point exception trapping enabled (FOAM_SIGFPE).
fileModificationChecking : Monitoring run-time modified files using timeStampMaster (fileModificationSkew 10)
allowSystemOperations : Allowing user-supplied system call operations

// * * * * * * * * * * * * * * * * * * * * * * * * * * * * * * * * * * * * * //
Create time

Create mesh for time = 0

Read mesh in = 0.32 s

Overall mesh bounding box  : (-7.41043 -1.6002 -0.1524) (4.47677 1.6002 2.1336)
Relative tolerance         : 1e-06
Absolute matching distance : 1.25209e-05

Reading refinement surfaces.
Read refinement surfaces in = 0.04 s

Reading refinement shells.
Refinement level according to distance to GTS-Storms-v7.stl
    level 5 for all cells within 0.015 metre.
Refinement level 1 for all cells inside refinementBox1
Refinement level 2 for all cells inside refinementBox2
Refinement level 3 for all cells inside refinementBox3
Read refinement shells in = 0 s

Setting refinement level of surface to be consistent with shells.
For geometry GTS-Storms-v7.stl detected 0 uncached triangles out of 9996
Checked shell refinement in = 0.17 s

Reading features.
Read edgeMesh GTS-Storms-v7.eMesh
    points      : 1138
    edges       : 1138
    boundingBox : (-2.47627 -0.161925 -0.0762) (0 0.161925 0.4508)

Refinement level according to distance to "GTS-Storms-v7.eMesh" (1138 points, 1138 edges).
    level 6 for all cells within 0.012 metre.
Read features in = 0.03 s


Determining initial surface intersections
-----------------------------------------

Edge intersection testing:
    Number of edges             : 602172
    Number of edges to retest   : 602172
    Number of intersected edges : 23872
Calculated surface intersections in = 0.21 s

Initial mesh : cells:196560  faces:602172  points:209281
Cells per refinement level:
    0	196560

Adding patches for surface regions
----------------------------------

Patch Type                Region                        
----- ----                ------                        
gtsModel:

5     wall                gtsModel                      

inlet:

1     patch               inlet                         

outlet:

2     patch               outlet                        

left:

6     wall                left                          

right:

7     wall                right                         

top:

8     wall                top                           

floor:

9     wall                floor                         

Added patches in = 0.03 s

Edge intersection testing:
    Number of edges             : 602172
    Number of edges to retest   : 2520
    Number of intersected edges : 23872
Selecting decompositionMethod hierarchical [60]

Refinement phase
----------------

Found point (2.0001 0.0001 0.5002) in cell 2572 on processor 13

Feature refinement iteration 0
------------------------------

Marked for refinement due to explicit features             : 160 cells.
Determined cells to refine in = 0.04 s
Selected for feature refinement : 160 cells (out of 196560)
Edge intersection testing:
    Number of edges             : 606486
    Number of edges to retest   : 7412
    Number of intersected edges : 24346
Refined mesh in = 0.11 s
After refinement feature refinement iteration 0 : cells:197680  faces:606486  points:211509
Cells per refinement level:
    0	196400
    1	1280
Balanced mesh in = 0.17 s
After balancing feature refinement iteration 0 : cells:197680  faces:606486  points:211509
Cells per refinement level:
    0	196400
    1	1280

Feature refinement iteration 1
------------------------------

Marked for refinement due to explicit features             : 297 cells.
Determined cells to refine in = 0.56 s
Selected for feature refinement : 569 cells (out of 197680)
Edge intersection testing:
    Number of edges             : 620916
    Number of edges to retest   : 22139
    Number of intersected edges : 26947
Refined mesh in = 0.07 s
After refinement feature refinement iteration 1 : cells:201663  faces:620916  points:218246
Cells per refinement level:
    0	196125
    1	3186
    2	2352
Balanced mesh in = 0.2 s
After balancing feature refinement iteration 1 : cells:201663  faces:620916  points:218246
Cells per refinement level:
    0	196125
    1	3186
    2	2352

Feature refinement iteration 2
------------------------------

Marked for refinement due to explicit features             : 594 cells.
Determined cells to refine in = 0.13 s
Selected for feature refinement : 1298 cells (out of 201663)
Edge intersection testing:
    Number of edges             : 653361
    Number of edges to retest   : 48777
    Number of intersected edges : 31537
Refined mesh in = 0.11 s
After refinement feature refinement iteration 2 : cells:210749  faces:653361  points:233104
Cells per refinement level:
    0	195991
    1	3680
    2	6390
    3	4688
Balanced mesh in = 0.19 s
After balancing feature refinement iteration 2 : cells:210749  faces:653361  points:233104
Cells per refinement level:
    0	195991
    1	3680
    2	6390
    3	4688

Feature refinement iteration 3
------------------------------

Marked for refinement due to explicit features             : 1157 cells.
Determined cells to refine in = 1.06 s
Selected for feature refinement : 2899 cells (out of 210749)
Edge intersection testing:
    Number of edges             : 725544
    Number of edges to retest   : 113015
    Number of intersected edges : 34525
Refined mesh in = 0.1 s
After refinement feature refinement iteration 3 : cells:231042  faces:725544  points:265845
Cells per refinement level:
    0	195834
    1	4396
    2	9589
    3	12575
    4	8648
Balanced mesh in = 0.25 s
After balancing feature refinement iteration 3 : cells:231042  faces:725544  points:265845
Cells per refinement level:
    0	195834
    1	4396
    2	9589
    3	12575
    4	8648

Feature refinement iteration 4
------------------------------

Marked for refinement due to explicit features             : 2290 cells.
Determined cells to refine in = 0.11 s
Selected for feature refinement : 5934 cells (out of 231042)
Edge intersection testing:
    Number of edges             : 873201
    Number of edges to retest   : 231009
    Number of intersected edges : 50772
Refined mesh in = 0.21 s
After refinement feature refinement iteration 4 : cells:272580  faces:873201  points:332715
Cells per refinement level:
    0	195696
    1	5194
    2	10946
    3	19066
    4	24382
    5	17296
Balanced mesh in = 0.45 s
After balancing feature refinement iteration 4 : cells:272580  faces:873201  points:332715
Cells per refinement level:
    0	195696
    1	5194
    2	10946
    3	19066
    4	24382
    5	17296

Feature refinement iteration 5
------------------------------

Marked for refinement due to explicit features             : 4228 cells.
Determined cells to refine in = 0.13 s
Selected for feature refinement : 10186 cells (out of 272580)
Edge intersection testing:
    Number of edges             : 1123485
    Number of edges to retest   : 408009
    Number of intersected edges : 64839
Refined mesh in = 0.29 s
After refinement feature refinement iteration 5 : cells:343882  faces:1123485  points:444145
Cells per refinement level:
    0	195628
    1	5578
    2	11624
    3	22137
    4	34292
    5	46135
    6	28488
Balanced mesh in = 0.53 s
After balancing feature refinement iteration 5 : cells:343882  faces:1123485  points:444145
Cells per refinement level:
    0	195628
    1	5578
    2	11624
    3	22137
    4	34292
    5	46135
    6	28488

Feature refinement iteration 6
------------------------------

Marked for refinement due to explicit features             : 1453 cells.
Determined cells to refine in = 0.19 s
Selected for feature refinement : 2544 cells (out of 343882)
Edge intersection testing:
    Number of edges             : 1187313
    Number of edges to retest   : 109652
    Number of intersected edges : 67917
Refined mesh in = 0.24 s
After refinement feature refinement iteration 6 : cells:361690  faces:1187313  points:473549
Cells per refinement level:
    0	195628
    1	5578
    2	11568
    3	22458
    4	34352
    5	52378
    6	39728
Balanced mesh in = 0.52 s
After balancing feature refinement iteration 6 : cells:361690  faces:1187313  points:473549
Cells per refinement level:
    0	195628
    1	5578
    2	11568
    3	22458
    4	34352
    5	52378
    6	39728

Feature refinement iteration 7
------------------------------

Marked for refinement due to explicit features             : 96 cells.
Determined cells to refine in = 0.18 s
Selected for feature refinement : 228 cells (out of 361690)
Edge intersection testing:
    Number of edges             : 1192950
    Number of edges to retest   : 8793
    Number of intersected edges : 68205
Refined mesh in = 0.26 s
After refinement feature refinement iteration 7 : cells:363286  faces:1192950  points:476086
Cells per refinement level:
    0	195628
    1	5578
    2	11556
    3	22530
    4	34448
    5	53050
    6	40496
Balanced mesh in = 0.53 s
After balancing feature refinement iteration 7 : cells:363286  faces:1192950  points:476086
Cells per refinement level:
    0	195628
    1	5578
    2	11556
    3	22530
    4	34448
    5	53050
    6	40496

Feature refinement iteration 8
------------------------------

Marked for refinement due to explicit features             : 0 cells.
Determined cells to refine in = 0.19 s
Selected for feature refinement : 0 cells (out of 363286)
Stopping refining since too few cells selected.


Surface refinement iteration 0
------------------------------

Marked for refinement due to surface intersection          : 26259 cells.
Marked for refinement due to curvature/regions             : 5014 cells.
Determined cells to refine in = 0.03 s
Selected for refinement : 32785 cells (out of 363286)
Edge intersection testing:
    Number of edges             : 1941618
    Number of edges to retest   : 1136997
    Number of intersected edges : 126240
Refined mesh in = 0.57 s
After refinement surface refinement iteration 0 : cells:592781  faces:1941618  points:765748
Cells per refinement level:
    0	193696
    1	19698
    2	18806
    3	41904
    4	86553
    5	151516
    6	80608
Balanced mesh in = 0.9 s
After balancing surface refinement iteration 0 : cells:592781  faces:1941618  points:765748
Cells per refinement level:
    0	193696
    1	19698
    2	18806
    3	41904
    4	86553
    5	151516
    6	80608

Surface refinement iteration 1
------------------------------

Marked for refinement due to surface intersection          : 51632 cells.
Marked for refinement due to curvature/regions             : 884 cells.
Determined cells to refine in = 0.11 s
Selected for refinement : 55454 cells (out of 592781)
Edge intersection testing:
    Number of edges             : 3186807
    Number of edges to retest   : 1815534
    Number of intersected edges : 208346
Refined mesh in = 0.58 s
After refinement surface refinement iteration 1 : cells:980959  faces:3186807  points:1234199
Cells per refinement level:
    0	193346
    1	17102
    2	55846
    3	78628
    4	154557
    5	393800
    6	87680
Balanced mesh in = 1.09 s
After balancing surface refinement iteration 1 : cells:980959  faces:3186807  points:1234199
Cells per refinement level:
    0	193346
    1	17102
    2	55846
    3	78628
    4	154557
    5	393800
    6	87680

Surface refinement iteration 2
------------------------------

Marked for refinement due to surface intersection          : 76988 cells.
Marked for refinement due to curvature/regions             : 16 cells.
Determined cells to refine in = 0.18 s
Selected for refinement : 81210 cells (out of 980959)
Edge intersection testing:
    Number of edges             : 5005077
    Number of edges to retest   : 2508356
    Number of intersected edges : 324268
Refined mesh in = 0.91 s
After refinement surface refinement iteration 2 : cells:1549429  faces:5005077  points:1914803
Cells per refinement level:
    0	193116
    1	17882
    2	51344
    3	160950
    4	281441
    5	756888
    6	87808
Balanced mesh in = 1.91 s
After balancing surface refinement iteration 2 : cells:1549429  faces:5005077  points:1914803
Cells per refinement level:
    0	193116
    1	17882
    2	51344
    3	160950
    4	281441
    5	756888
    6	87808

Surface refinement iteration 3
------------------------------

Marked for refinement due to surface intersection          : 126450 cells.
Marked for refinement due to curvature/regions             : 161 cells.
Determined cells to refine in = 0.26 s
Selected for refinement : 133179 cells (out of 1549429)
Edge intersection testing:
    Number of edges             : 7986876
    Number of edges to retest   : 3953766
    Number of intersected edges : 516840
Refined mesh in = 1.5 s
After refinement surface refinement iteration 3 : cells:2481682  faces:7986876  points:3030979
Cells per refinement level:
    0	193054
    1	18110
    2	48992
    3	150518
    4	570849
    5	1411063
    6	89096
Balanced mesh in = 3.04 s
After balancing surface refinement iteration 3 : cells:2481682  faces:7986876  points:3030979
Cells per refinement level:
    0	193054
    1	18110
    2	48992
    3	150518
    4	570849
    5	1411063
    6	89096

Surface refinement iteration 4
------------------------------

Marked for refinement due to surface intersection          : 178570 cells.
Marked for refinement due to curvature/regions             : 60 cells.
Determined cells to refine in = 0.42 s
Selected for refinement : 183660 cells (out of 2481682)
Edge intersection testing:
    Number of edges             : 12109470
    Number of edges to retest   : 5419590
    Number of intersected edges : 792732
Refined mesh in = 2.46 s
After refinement surface refinement iteration 4 : cells:3767302  faces:12109470  points:4580425
Cells per refinement level:
    0	193048
    1	18128
    2	49064
    3	146948
    4	431679
    5	2838859
    6	89576
Balanced mesh in = 4.8 s
After balancing surface refinement iteration 4 : cells:3767302  faces:12109470  points:4580425
Cells per refinement level:
    0	193048
    1	18128
    2	49064
    3	146948
    4	431679
    5	2838859
    6	89576

Surface refinement iteration 5
------------------------------

Marked for refinement due to surface intersection          : 392 cells.
Marked for refinement due to curvature/regions             : 0 cells.
Determined cells to refine in = 0.63 s
Selected for refinement : 446 cells (out of 3767302)
Edge intersection testing:
    Number of edges             : 12119142
    Number of edges to retest   : 25924
    Number of intersected edges : 793390
Refined mesh in = 1.93 s
After refinement surface refinement iteration 5 : cells:3770424  faces:12119142  points:4583803
Cells per refinement level:
    0	193048
    1	18122
    2	49096
    3	147044
    4	431543
    5	2841995
    6	89576
Skipping balancing since max unbalance 0.00778167 is less than allowable 0.1

Surface refinement iteration 6
------------------------------

Marked for refinement due to surface intersection          : 0 cells.
Marked for refinement due to curvature/regions             : 0 cells.
Determined cells to refine in = 0.61 s
Selected for refinement : 0 cells (out of 3770424)
Stopping refining since too few cells selected.


Removing mesh beyond surface intersections
------------------------------------------

Setting cellZones according to locationsInMesh:
Location : (2.0001 0.0001 0.5002)
    cellZone : none

For cellZone none found point (2.0001 0.0001 0.5002) in global region 1 out of 3 regions.
Keeping all cells containing inside points
Selected for keeping : 3770424 cells.
Edge intersection testing:
    Number of edges             : 12119142
    Number of edges to retest   : 0
    Number of intersected edges : 793390
Setting cellZones according to locationsInMesh:
Location : (2.0001 0.0001 0.5002)
    cellZone : none

For cellZone none found point (2.0001 0.0001 0.5002) in global region 1 out of 3 regions.
Keeping all cells containing inside points
Selected for keeping : 3481885 cells.
Edge intersection testing:
    Number of edges             : 11310641
    Number of edges to retest   : 490780
    Number of intersected edges : 793390

Shell refinement iteration 0
----------------------------

Marked for refinement due to distance to explicit features : 186086 cells.
Marked for refinement due to refinement shells             : 443047 cells.
Determined cells to refine in = 3.97 s
Selected for internal refinement : 706815 cells (out of 3481885)
Edge intersection testing:
    Number of edges             : 26401145
    Number of edges to retest   : 21939176
    Number of intersected edges : 960270
Refined mesh in = 4.26 s
After refinement shell refinement iteration 0 : cells:8429590  faces:26401145  points:9539553
Cells per refinement level:
    0	127416
    1	530038
    2	93990
    3	198675
    4	675138
    5	5135108
    6	1669225
Balanced mesh in = 7.54 s
After balancing shell refinement iteration 0 : cells:8429590  faces:26401145  points:9539558
Cells per refinement level:
    0	127416
    1	530038
    2	93990
    3	198675
    4	675138
    5	5135108
    6	1669225

Shell refinement iteration 1
----------------------------

Marked for refinement due to distance to explicit features : 145868 cells.
Marked for refinement due to refinement shells             : 424227 cells.
Determined cells to refine in = 0.86 s
Selected for internal refinement : 628345 cells (out of 8429590)
Edge intersection testing:
    Number of edges             : 39754952
    Number of edges to retest   : 20272053
    Number of intersected edges : 993215
Refined mesh in = 4.33 s
After refinement shell refinement iteration 1 : cells:12828005  faces:39754952  points:14096048
Cells per refinement level:
    0	125484
    1	349348
    2	1606288
    3	625581
    4	699771
    5	6587956
    6	2833577
Balanced mesh in = 11.47 s
After balancing shell refinement iteration 1 : cells:12828005  faces:39754952  points:14096074
Cells per refinement level:
    0	125484
    1	349348
    2	1606288
    3	625581
    4	699771
    5	6587956
    6	2833577

Shell refinement iteration 2
----------------------------

Marked for refinement due to distance to explicit features : 29756 cells.
Marked for refinement due to refinement shells             : 408080 cells.
Determined cells to refine in = 0.97 s
Selected for internal refinement : 452084 cells (out of 12828005)
Edge intersection testing:
    Number of edges             : 49329137
    Number of edges to retest   : 12299780
    Number of intersected edges : 1020289
Refined mesh in = 4.74 s
After refinement shell refinement iteration 2 : cells:15992593  faces:49329137  points:17341172
Cells per refinement level:
    0	125480
    1	344380
    2	1238288
    3	3882033
    4	758387
    5	6572336
    6	3071689
Balanced mesh in = 12.67 s
After balancing shell refinement iteration 2 : cells:15992593  faces:49329137  points:17341181
Cells per refinement level:
    0	125480
    1	344380
    2	1238288
    3	3882033
    4	758387
    5	6572336
    6	3071689

Shell refinement iteration 3
----------------------------

Marked for refinement due to distance to explicit features : 56 cells.
Marked for refinement due to refinement shells             : 0 cells.
Determined cells to refine in = 1.13 s
Selected for internal refinement : 629 cells (out of 15992593)
Edge intersection testing:
    Number of edges             : 49342619
    Number of edges to retest   : 43176
    Number of intersected edges : 1020289
Refined mesh in = 3.69 s
After refinement shell refinement iteration 3 : cells:15996996  faces:49342619  points:17345854
Cells per refinement level:
    0	125480
    1	344368
    2	1238367
    3	3881662
    4	762411
    5	6572531
    6	3072177
Skipping balancing since max unbalance 0.00305308 is less than allowable 0.1

Shell refinement iteration 4
----------------------------

Marked for refinement due to distance to explicit features : 0 cells.
Marked for refinement due to refinement shells             : 0 cells.
Determined cells to refine in = 1.08 s
Selected for internal refinement : 9 cells (out of 15996996)
Edge intersection testing:
    Number of edges             : 49342808
    Number of edges to retest   : 894
    Number of intersected edges : 1020289
Refined mesh in = 3.69 s
After refinement shell refinement iteration 4 : cells:15997059  faces:49342808  points:17345917
Cells per refinement level:
    0	125480
    1	344368
    2	1238367
    3	3881653
    4	762483
    5	6572531
    6	3072177
Skipping balancing since max unbalance 0.00304932 is less than allowable 0.1

Shell refinement iteration 5
----------------------------

Marked for refinement due to distance to explicit features : 0 cells.
Marked for refinement due to refinement shells             : 0 cells.
Determined cells to refine in = 1.08 s
Selected for internal refinement : 0 cells (out of 15997059)
Stopping refining since too few cells selected.


Dangling coarse cells refinement iteration 0
--------------------------------------------

Determined cells to refine in = 0.03 s
Selected for refinement : 0 cells (out of 15997059)
Stopping refining since too few cells selected.


Dangling coarse cells refinement iteration 0
--------------------------------------------

Determined cells to refine in = 0.02 s
Selected for refinement : 0 cells (out of 15997059)
Stopping refining since too few cells selected.


Refinement transition refinement iteration 0
--------------------------------------------

Determined cells to refine in = 0.02 s
Selected for refinement : 2 cells (out of 15997059)
Edge intersection testing:
    Number of edges             : 49342856
    Number of edges to retest   : 188
    Number of intersected edges : 1020293
Refined mesh in = 3.85 s
After refinement interface cell refinement iteration 0 : cells:15997073  faces:49342856  points:17345937
Cells per refinement level:
    0	125480
    1	344368
    2	1238367
    3	3881653
    4	762483
    5	6572529
    6	3072193
Skipping balancing since max unbalance 0.00304932 is less than allowable 0.1

Refinement transition refinement iteration 1
--------------------------------------------

Determined cells to refine in = 0.75 s
Selected for refinement : 0 cells (out of 15997073)
Stopping refining since too few cells selected.


Splitting mesh at surface intersections
---------------------------------------

Introducing baffles for 1020293 faces that are intersected by the surface.

Setting cellZones according to locationsInMesh:
Location : (2.0001 0.0001 0.5002)
    cellZone : none

For cellZone none found point (2.0001 0.0001 0.5002) in global region 1 out of 3 regions.
Edge intersection testing:
    Number of edges             : 50363149
    Number of edges to retest   : 7873440
    Number of intersected edges : 2036484
Created baffles in = 2.97 s


After introducing baffles : cells:15997073  faces:50363149  points:17630913
Cells per refinement level:
    0	125480
    1	344368
    2	1238367
    3	3881653
    4	762483
    5	6572529
    6	3072193

Introducing baffles to block off problem cells
----------------------------------------------

markFacesOnProblemCells : marked 396911 additional internal faces to be converted into baffles.
Analyzed problem cells in = 1.96 s


Introducing baffles to delete problem cells.

Edge intersection testing:
    Number of edges             : 50760060
    Number of edges to retest   : 1316562
    Number of intersected edges : 2036494
Created baffles in = 2.1 s


After introducing baffles : cells:15997073  faces:50760060  points:17635778
Cells per refinement level:
    0	125480
    1	344368
    2	1238367
    3	3881653
    4	762483
    5	6572529
    6	3072193
Setting cellZones according to locationsInMesh:
Location : (2.0001 0.0001 0.5002)
    cellZone : none

For cellZone none found point (2.0001 0.0001 0.5002) in global region 2 out of 185695 regions.
Edge intersection testing:
    Number of edges             : 50760060
    Number of edges to retest   : 8224046
    Number of intersected edges : 2036494

Remove unreachable sections of mesh
-----------------------------------

Keeping all cells containing points 1((2.0001 0.0001 0.5002))
Selected for keeping : 12794134 cells.
Edge intersection testing:
    Number of edges             : 39615211
    Number of edges to retest   : 0
    Number of intersected edges : 1016985
Split mesh in = 4.98 s


After subsetting : cells:12794134  faces:39615211  points:14032908
Cells per refinement level:
    0	104568
    1	327394
    2	1166128
    3	3728763
    4	685689
    5	4537422
    6	2244170

Introducing zones for interfaces
--------------------------------

Setting cellZones according to locationsInMesh:
Location : (2.0001 0.0001 0.5002)
    cellZone : none

For cellZone none found point (2.0001 0.0001 0.5002) in global region 0 out of 1 regions.
Setting faceZones according to neighbouring cellZones:

Edge intersection testing:
    Number of edges             : 39615211
    Number of edges to retest   : 0
    Number of intersected edges : 1016985

Handling cells with snap problems
---------------------------------

Introducing baffles for 1016985 faces that are intersected by the surface.

Setting cellZones according to locationsInMesh:
Location : (2.0001 0.0001 0.5002)
    cellZone : none

For cellZone none found point (2.0001 0.0001 0.5002) in global region 0 out of 1 regions.
Edge intersection testing:
    Number of edges             : 39615211
    Number of edges to retest   : 4024306
    Number of intersected edges : 1016985
Created baffles in = 3.53 s


After introducing baffles : cells:12794134  faces:39615211  points:14032908
Cells per refinement level:
    0	104568
    1	327394
    2	1166128
    3	3728763
    4	685689
    5	4537422
    6	2244170

Introducing baffles to block off problem cells
----------------------------------------------

markFacesOnProblemCells : marked 0 additional internal faces to be converted into baffles.
Analyzed problem cells in = 1.35 s


Introducing baffles to delete problem cells.

Created baffles in = 0.09 s


After introducing baffles : cells:12794134  faces:39615211  points:14032908
Cells per refinement level:
    0	104568
    1	327394
    2	1166128
    3	3728763
    4	685689
    5	4537422
    6	2244170
Setting cellZones according to locationsInMesh:
Location : (2.0001 0.0001 0.5002)
    cellZone : none

For cellZone none found point (2.0001 0.0001 0.5002) in global region 0 out of 1 regions.
Edge intersection testing:
    Number of edges             : 39615211
    Number of edges to retest   : 4024306
    Number of intersected edges : 1016985

Remove unreachable sections of mesh
-----------------------------------

Split mesh in = 2.24 s


After subsetting : cells:12794134  faces:39615211  points:14032908
Cells per refinement level:
    0	104568
    1	327394
    2	1166128
    3	3728763
    4	685689
    5	4537422
    6	2244170

Merge free-standing baffles
---------------------------

freeStandingBaffles : detected 0 free-standing baffles out of 0

Detected free-standing baffles : 0
Merged free-standing baffles in = 0.77 s


dupNonManifoldPoints : Found : 0 non-manifold points (out of 14634227)
Detected unsplittable baffles : 0

Merge refined boundary faces
----------------------------

Merging 1921 sets of faces.

Edge intersection testing:
    Number of edges             : 39613236
    Number of edges to retest   : 13592
    Number of intersected edges : 1015010

Undo iteration 0
----------------
Checking faces in error :
    non-orthogonality > 65  degrees                        : 0
    faces with face pyramid volume < 1e-13                 : 0
    faces with face-decomposition tet quality < 1e-15      : 0
    faces with concavity > 80  degrees                     : 0
    faces with skewness > 4   (internal) or 20  (boundary) : 0
    faces with interpolation weights (0..1)  < 0.02        : 0
    faces with volume ratio of neighbour cells < 0.01      : 0
    faces with face twist < 0.02                           : 0
    faces on cells with determinant < 0.001                : 0

Merging all points on surface that
- are used by only two boundary faces and
- make an angle with a cosine of more than 0.707107.

Removing 1947 straight edge points ...

Edge intersection testing:
    Number of edges             : 39613236
    Number of edges to retest   : 13858
    Number of intersected edges : 1015010

Undo iteration 0
----------------
Checking faces in error :
    non-orthogonality > 65  degrees                        : 0
    faces with face pyramid volume < 1e-13                 : 0
    faces with face-decomposition tet quality < 1e-15      : 0
    faces with concavity > 80  degrees                     : 0
    faces with skewness > 4   (internal) or 20  (boundary) : 0
    faces with interpolation weights (0..1)  < 0.02        : 0
    faces with volume ratio of neighbour cells < 0.01      : 0
    faces with face twist < 0.02                           : 0
    faces on cells with determinant < 0.001                : 0

Doing final balancing
---------------------

Found 0 zoned faces to keep together.
Found 0 separated coupled faces to keep together.
Refined mesh : cells:12794134  faces:39613236  points:14030934
Cells per refinement level:
    0	104568
    1	327394
    2	1166128
    3	3728763
    4	685689
    5	4537422
    6	2244170
Writing mesh to time 1
Wrote mesh in = 17.18 s.
Mesh refined in = 132.07 s.

Morphing phase
--------------

Duplicating 0 points on faceZones of type boundary
Snapping to features in 20 iterations ...
Constructing mesh displacer ...
Using mesh parameters 
{
    maxNonOrtho     65;
    maxBoundarySkewness 20;
    maxInternalSkewness 4;
    maxConcave      80;
    minVol          1e-13;
    minTetQuality   1e-15;
    minArea         -1;
    minTwist        0.02;
    minDeterminant  0.001;
    minFaceWeight   0.02;
    minVolRatio     0.01;
    minTriangleTwist -1;
    nSmoothScale    4;
    errorReduction  0.75;
    relaxed
    {
        maxNonOrtho     75;
    }
}


Checking initial mesh ...
Checking faces in error :
    non-orthogonality > 65  degrees                        : 0
    faces with face pyramid volume < 1e-13                 : 0
    faces with face-decomposition tet quality < 1e-15      : 0
    faces with concavity > 80  degrees                     : 0
    faces with skewness > 4   (internal) or 20  (boundary) : 0
    faces with interpolation weights (0..1)  < 0.02        : 0
    faces with volume ratio of neighbour cells < 0.01      : 0
    faces with face twist < 0.02                           : 0
    faces on cells with determinant < 0.001                : 0
Detected 0 illegal faces (concave, zero area or negative cell pyramid volume)
Checked initial mesh in = 2.66 s


Smoothing patch points ...
Smoothing iteration 0
Found 0 non-manifold point(s).

Scaling iteration 0
Moving mesh using displacement scaling : min:1  max:1
Checking faces in error :
    non-orthogonality > 65  degrees                        : 0
    faces with face pyramid volume < 1e-13                 : 0
    faces with face-decomposition tet quality < 1e-15      : 0
    faces with concavity > 80  degrees                     : 0
    faces with skewness > 4   (internal) or 20  (boundary) : 0
    faces with interpolation weights (0..1)  < 0.02        : 0
    faces with volume ratio of neighbour cells < 0.01      : 0
    faces with face twist < 0.02                           : 0
    faces on cells with determinant < 0.001                : 0
Successfully moved mesh

Smoothing iteration 1
Found 0 non-manifold point(s).

Scaling iteration 0
Moving mesh using displacement scaling : min:1  max:1
Checking faces in error :
    non-orthogonality > 65  degrees                        : 0
    faces with face pyramid volume < 1e-13                 : 0
    faces with face-decomposition tet quality < 1e-15      : 0
    faces with concavity > 80  degrees                     : 0
    faces with skewness > 4   (internal) or 20  (boundary) : 0
    faces with interpolation weights (0..1)  < 0.02        : 0
    faces with volume ratio of neighbour cells < 0.01      : 0
    faces with face twist < 0.02                           : 0
    faces on cells with determinant < 0.001                : 0
Successfully moved mesh

Smoothing iteration 2
Found 0 non-manifold point(s).

Scaling iteration 0
Moving mesh using displacement scaling : min:1  max:1
Checking faces in error :
    non-orthogonality > 65  degrees                        : 0
    faces with face pyramid volume < 1e-13                 : 0
    faces with face-decomposition tet quality < 1e-15      : 0
    faces with concavity > 80  degrees                     : 0
    faces with skewness > 4   (internal) or 20  (boundary) : 0
    faces with interpolation weights (0..1)  < 0.02        : 0
    faces with volume ratio of neighbour cells < 0.01      : 0
    faces with face twist < 0.02                           : 0
    faces on cells with determinant < 0.001                : 0
Successfully moved mesh

Patch points smoothed in = 5.5 s



Morph iteration 0
-----------------
Calculating patchDisplacement as distance to nearest surface point ...
    non-zone points : attract to nearest of all non-zone surfaces
    zone points     : attract to zone surface only

Wanted displacement : average:0.000746687 min:2.29256e-09 max:0.0497525
Calculated surface displacement in = 0.12 s


Detecting near surfaces ...
Overriding nearest with intersection of close gaps at 0 out of 1036375 points.
Overriding displacement on features :
   implicit features    : false
   explicit features    : true
   multi-patch features : false

Detected 0 baffle edges out of 2051535 edges.
Baffle points     : 0 of which attracted to :
    feature point : 0
    feature edge  : 0
    rest          : 0

Initially selected 11996 mesh points out of 1036375 for reverse attraction.
Selected 34506 mesh points out of 1036375 for reverse attraction.
Stringing feature edges : changed 52 points
Stringing feature edges : changed 0 points
Attraction:
    linear   : max:(-0.000248755 0.0497519 0) avg:(6.17238e-05 7.90756e-10 -4.38395e-05)
    feature  : max:(-0.00098671 -2.57194e-05 -0.000544457) avg:(3.70405e-07 2.27913e-10 -1.81169e-06)
Feature analysis : total master points :1021332 of which attracted to :
    feature point   : 4
    feature edge    : 9624
    nearest surface : 0
    rest            : 1011704

--> FOAM Warning : Displacement (-0.000295974 0.000171688 -2.79382e-05) at mesh point 24079 coord (-7.29836 -1.48813 0.1524) points through the surrounding patch faces
Smoothing displacement ...
Iteration 0
Iteration 10
Iteration 20
Iteration 30
Iteration 40
Iteration 50
Iteration 60
Iteration 70
Iteration 80
Iteration 90
Iteration 100
Iteration 110
Iteration 120
Iteration 130
Iteration 140
Iteration 150
Iteration 160
Iteration 170
Iteration 180
Iteration 190
Iteration 200
Iteration 210
Iteration 220
Iteration 230
Iteration 240
Iteration 250
Iteration 260
Iteration 270
Iteration 280
Iteration 290
Displacement smoothed in = 25.68 s


Moving mesh ...

Iteration 0
Moving mesh using displacement scaling : min:1  max:1
Checking faces in error :
    non-orthogonality > 65  degrees                        : 0
    faces with face pyramid volume < 1e-13                 : 0
    faces with face-decomposition tet quality < 1e-15      : 0
    faces with concavity > 80  degrees                     : 0
    faces with skewness > 4   (internal) or 20  (boundary) : 0
    faces with interpolation weights (0..1)  < 0.02        : 0
    faces with volume ratio of neighbour cells < 0.01      : 0
    faces with face twist < 0.02                           : 0
    faces on cells with determinant < 0.001                : 0
Successfully moved mesh
Moved mesh in = 1.57 s



Morph iteration 1
-----------------
Calculating patchDisplacement as distance to nearest surface point ...
    non-zone points : attract to nearest of all non-zone surfaces
    zone points     : attract to zone surface only

Wanted displacement : average:0.000712034 min:3.88335e-08 max:0.0489174
Calculated surface displacement in = 0.12 s


Detecting near surfaces ...
Overriding nearest with intersection of close gaps at 0 out of 1036375 points.
Overriding displacement on features :
   implicit features    : false
   explicit features    : true
   multi-patch features : false

Detected 0 baffle edges out of 2051535 edges.
Baffle points     : 0 of which attracted to :
    feature point : 0
    feature edge  : 0
    rest          : 0

Initially selected 11992 mesh points out of 1036375 for reverse attraction.
Selected 34502 mesh points out of 1036375 for reverse attraction.
Stringing feature edges : changed 38 points
Stringing feature edges : changed 0 points
Attraction:
    linear   : max:(-0.00024458 -0.0489168 8.67362e-18) avg:(5.85461e-05 7.23093e-10 -4.16361e-05)
    feature  : max:(-0.000984244 2.56551e-05 -0.000517234) avg:(3.49865e-07 2.2339e-10 -1.72644e-06)
Feature analysis : total master points :1021332 of which attracted to :
    feature point   : 4
    feature edge    : 9624
    nearest surface : 0
    rest            : 1011704

--> FOAM Warning : Displacement (-0.000564609 0.00028832 -4.71342e-05) at mesh point 24079 coord (-7.29865 -1.48795 0.152372) points through the surrounding patch faces
Smoothing displacement ...
Iteration 0
Iteration 10
Iteration 20
Iteration 30
Iteration 40
Iteration 50
Iteration 60
Iteration 70
Iteration 80
Iteration 90
Iteration 100
Iteration 110
Iteration 120
Iteration 130
Iteration 140
Iteration 150
Iteration 160
Iteration 170
Iteration 180
Iteration 190
Iteration 200
Iteration 210
Iteration 220
Iteration 230
Iteration 240
Iteration 250
Iteration 260
Iteration 270
Iteration 280
Iteration 290
Displacement smoothed in = 24.62 s


Moving mesh ...

Iteration 0
Moving mesh using displacement scaling : min:1  max:1
Checking faces in error :
    non-orthogonality > 65  degrees                        : 0
    faces with face pyramid volume < 1e-13                 : 0
    faces with face-decomposition tet quality < 1e-15      : 0
    faces with concavity > 80  degrees                     : 0
    faces with skewness > 4   (internal) or 20  (boundary) : 0
    faces with interpolation weights (0..1)  < 0.02        : 0
    faces with volume ratio of neighbour cells < 0.01      : 0
    faces with face twist < 0.02                           : 0
    faces on cells with determinant < 0.001                : 0
Successfully moved mesh
Moved mesh in = 1.56 s



Morph iteration 2
-----------------
Calculating patchDisplacement as distance to nearest surface point ...
    non-zone points : attract to nearest of all non-zone surfaces
    zone points     : attract to zone surface only

Wanted displacement : average:0.000645912 min:2.32999e-09 max:0.0471554
Calculated surface displacement in = 0.12 s


Detecting near surfaces ...
Overriding nearest with intersection of close gaps at 0 out of 1036375 points.
Overriding displacement on features :
   implicit features    : false
   explicit features    : true
   multi-patch features : false

Detected 0 baffle edges out of 2051535 edges.
Baffle points     : 0 of which attracted to :
    feature point : 0
    feature edge  : 0
    rest          : 0

Initially selected 11990 mesh points out of 1036375 for reverse attraction.
Selected 34488 mesh points out of 1036375 for reverse attraction.
Stringing feature edges : changed 22 points
Stringing feature edges : changed 0 points
Attraction:
    linear   : max:(-0.00023577 -0.0471548 -5.20417e-18) avg:(5.2522e-05 6.10097e-10 -3.74482e-05)
    feature  : max:(-0.000974401 2.53986e-05 -0.000465511) avg:(3.21688e-07 1.96351e-10 -1.56285e-06)
Feature analysis : total master points :1021332 of which attracted to :
    feature point   : 4
    feature edge    : 9624
    nearest surface : 0
    rest            : 1011704

--> FOAM Warning : Displacement (-0.000786083 0.000325201 -5.62074e-05) at mesh point 24079 coord (-7.29922 -1.48767 0.152325) points through the surrounding patch faces
Smoothing displacement ...
Iteration 0
Iteration 10
Iteration 20
Iteration 30
Iteration 40
Iteration 50
Iteration 60
Iteration 70
Iteration 80
Iteration 90
Iteration 100
Iteration 110
Iteration 120
Iteration 130
Iteration 140
Iteration 150
Iteration 160
Iteration 170
Iteration 180
Iteration 190
Iteration 200
Iteration 210
Iteration 220
Iteration 230
Iteration 240
Iteration 250
Iteration 260
Iteration 270
Iteration 280
Iteration 290
Displacement smoothed in = 24.6 s


Moving mesh ...

Iteration 0
Moving mesh using displacement scaling : min:1  max:1
Checking faces in error :
    non-orthogonality > 65  degrees                        : 0
    faces with face pyramid volume < 1e-13                 : 0
    faces with face-decomposition tet quality < 1e-15      : 0
    faces with concavity > 80  degrees                     : 0
    faces with skewness > 4   (internal) or 20  (boundary) : 0
    faces with interpolation weights (0..1)  < 0.02        : 0
    faces with volume ratio of neighbour cells < 0.01      : 0
    faces with face twist < 0.02                           : 0
    faces on cells with determinant < 0.001                : 0
Successfully moved mesh
Moved mesh in = 1.56 s



Morph iteration 3
-----------------
Calculating patchDisplacement as distance to nearest surface point ...
    non-zone points : attract to nearest of all non-zone surfaces
    zone points     : attract to zone surface only

Wanted displacement : average:0.000556093 min:7.74809e-09 max:0.0444588
Calculated surface displacement in = 0.12 s


Detecting near surfaces ...
Overriding nearest with intersection of close gaps at 0 out of 1036375 points.
Overriding displacement on features :
   implicit features    : false
   explicit features    : true
   multi-patch features : false

Detected 0 baffle edges out of 2051535 edges.
Baffle points     : 0 of which attracted to :
    feature point : 0
    feature edge  : 0
    rest          : 0

Initially selected 11992 mesh points out of 1036375 for reverse attraction.
Selected 34506 mesh points out of 1036375 for reverse attraction.
Stringing feature edges : changed 16 points
Stringing feature edges : changed 0 points
Attraction:
    linear   : max:(-0.000222287 -0.0444583 -1.21431e-17) avg:(4.44173e-05 4.56719e-10 -3.1795e-05)
    feature  : max:(-0.000952477 -2.48271e-05 -0.000395684) avg:(2.79619e-07 1.87758e-10 -1.34231e-06)
Feature analysis : total master points :1021332 of which attracted to :
    feature point   : 4
    feature edge    : 9624
    nearest surface : 0
    rest            : 1011704

--> FOAM Warning : Displacement (5.69276e-07 0.000225062 -0.000179199) at mesh point 16818 coord (-4.59103 -1.51322 0.0765908) points through the surrounding patch faces
Smoothing displacement ...
Iteration 0
Iteration 10
Iteration 20
Iteration 30
Iteration 40
Iteration 50
Iteration 60
Iteration 70
Iteration 80
Iteration 90
Iteration 100
Iteration 110
Iteration 120
Iteration 130
Iteration 140
Iteration 150
Iteration 160
Iteration 170
Iteration 180
Iteration 190
Iteration 200
Iteration 210
Iteration 220
Iteration 230
Iteration 240
Iteration 250
Iteration 260
Iteration 270
Iteration 280
Iteration 290
Displacement smoothed in = 24.6 s


Moving mesh ...

Iteration 0
Moving mesh using displacement scaling : min:1  max:1
Checking faces in error :
    non-orthogonality > 65  degrees                        : 0
    faces with face pyramid volume < 1e-13                 : 0
    faces with face-decomposition tet quality < 1e-15      : 0
    faces with concavity > 80  degrees                     : 0
    faces with skewness > 4   (internal) or 20  (boundary) : 0
    faces with interpolation weights (0..1)  < 0.02        : 0
    faces with volume ratio of neighbour cells < 0.01      : 0
    faces with face twist < 0.02                           : 0
    faces on cells with determinant < 0.001                : 0
Successfully moved mesh
Moved mesh in = 1.56 s



Morph iteration 4
-----------------
Calculating patchDisplacement as distance to nearest surface point ...
    non-zone points : attract to nearest of all non-zone surfaces
    zone points     : attract to zone surface only

Wanted displacement : average:0.000453376 min:4.92032e-08 max:0.0409108
Calculated surface displacement in = 0.12 s


Detecting near surfaces ...
Overriding nearest with intersection of close gaps at 0 out of 1036375 points.
Overriding displacement on features :
   implicit features    : false
   explicit features    : true
   multi-patch features : false

Detected 0 baffle edges out of 2051535 edges.
Baffle points     : 0 of which attracted to :
    feature point : 0
    feature edge  : 0
    rest          : 0

Initially selected 11992 mesh points out of 1036375 for reverse attraction.
Selected 34502 mesh points out of 1036375 for reverse attraction.
Stringing feature edges : changed 16 points
Stringing feature edges : changed 0 points
Attraction:
    linear   : max:(-0.000204548 -0.0409103 3.46945e-17) avg:(3.52764e-05 2.89096e-10 -2.53917e-05)
    feature  : max:(-0.000914378 2.3834e-05 -0.000316547) avg:(2.31545e-07 1.86125e-10 -1.08962e-06)
Feature analysis : total master points :1021332 of which attracted to :
    feature point   : 4
    feature edge    : 9624
    nearest surface : 0
    rest            : 1011704

--> FOAM Warning : Displacement (6.6827e-07 0.000281243 -0.000162622) at mesh point 16818 coord (-4.59103 -1.513 0.0764116) points through the surrounding patch faces
Smoothing displacement ...
Iteration 0
Iteration 10
Iteration 20
Iteration 30
Iteration 40
Iteration 50
Iteration 60
Iteration 70
Iteration 80
Iteration 90
Iteration 100
Iteration 110
Iteration 120
Iteration 130
Iteration 140
Iteration 150
Iteration 160
Iteration 170
Iteration 180
Iteration 190
Iteration 200
Iteration 210
Iteration 220
Iteration 230
Iteration 240
Iteration 250
Iteration 260
Iteration 270
Iteration 280
Iteration 290
Displacement smoothed in = 24.68 s


Moving mesh ...

Iteration 0
Moving mesh using displacement scaling : min:1  max:1
Checking faces in error :
    non-orthogonality > 65  degrees                        : 0
    faces with face pyramid volume < 1e-13                 : 0
    faces with face-decomposition tet quality < 1e-15      : 0
    faces with concavity > 80  degrees                     : 0
    faces with skewness > 4   (internal) or 20  (boundary) : 0
    faces with interpolation weights (0..1)  < 0.02        : 0
    faces with volume ratio of neighbour cells < 0.01      : 0
    faces with face twist < 0.02                           : 0
    faces on cells with determinant < 0.001                : 0
Successfully moved mesh
Moved mesh in = 1.58 s



Morph iteration 5
-----------------
Calculating patchDisplacement as distance to nearest surface point ...
    non-zone points : attract to nearest of all non-zone surfaces
    zone points     : attract to zone surface only

Wanted displacement : average:0.000349399 min:1.60265e-08 max:0.0366785
Calculated surface displacement in = 0.12 s


Detecting near surfaces ...
Overriding nearest with intersection of close gaps at 0 out of 1036375 points.
Overriding displacement on features :
   implicit features    : false
   explicit features    : true
   multi-patch features : false

Detected 0 baffle edges out of 2051535 edges.
Baffle points     : 0 of which attracted to :
    feature point : 0
    feature edge  : 0
    rest          : 0

Initially selected 11988 mesh points out of 1036375 for reverse attraction.
Selected 34502 mesh points out of 1036375 for reverse attraction.
Stringing feature edges : changed 16 points
Stringing feature edges : changed 0 points
Attraction:
    linear   : max:(-0.000183387 -0.0366781 1.73472e-17) avg:(2.61948e-05 1.19639e-10 -1.89962e-05)
    feature  : max:(-0.00085723 -2.23444e-05 -0.00023741) avg:(1.82568e-07 8.38879e-11 -8.35006e-07)
Feature analysis : total master points :1021332 of which attracted to :
    feature point   : 4
    feature edge    : 9624
    nearest surface : 0
    rest            : 1011704

--> FOAM Warning : Displacement (8.39007e-07 0.000335958 -0.000127291) at mesh point 16818 coord (-4.59103 -1.51272 0.076249) points through the surrounding patch faces
Smoothing displacement ...
Iteration 0
Iteration 10
Iteration 20
Iteration 30
Iteration 40
Iteration 50
Iteration 60
Iteration 70
Iteration 80
Iteration 90
Iteration 100
Iteration 110
Iteration 120
Iteration 130
Iteration 140
Iteration 150
Iteration 160
Iteration 170
Iteration 180
Iteration 190
Iteration 200
Iteration 210
Iteration 220
Iteration 230
Iteration 240
Iteration 250
Iteration 260
Iteration 270
Iteration 280
Iteration 290
Displacement smoothed in = 24.6 s


Moving mesh ...

Iteration 0
Moving mesh using displacement scaling : min:1  max:1
Checking faces in error :
    non-orthogonality > 65  degrees                        : 0
    faces with face pyramid volume < 1e-13                 : 0
    faces with face-decomposition tet quality < 1e-15      : 0
    faces with concavity > 80  degrees                     : 0
    faces with skewness > 4   (internal) or 20  (boundary) : 0
    faces with interpolation weights (0..1)  < 0.02        : 0
    faces with volume ratio of neighbour cells < 0.01      : 0
    faces with face twist < 0.02                           : 0
    faces on cells with determinant < 0.001                : 0
Successfully moved mesh
Moved mesh in = 1.6 s



Morph iteration 6
-----------------
Calculating patchDisplacement as distance to nearest surface point ...
    non-zone points : attract to nearest of all non-zone surfaces
    zone points     : attract to zone surface only

Wanted displacement : average:0.000254208 min:4.88196e-09 max:0.0319914
Calculated surface displacement in = 0.12 s


Detecting near surfaces ...
Overriding nearest with intersection of close gaps at 0 out of 1036375 points.
Overriding displacement on features :
   implicit features    : false
   explicit features    : true
   multi-patch features : false

Detected 0 baffle edges out of 2051535 edges.
Baffle points     : 0 of which attracted to :
    feature point : 0
    feature edge  : 0
    rest          : 0

Initially selected 11988 mesh points out of 1036375 for reverse attraction.
Selected 34502 mesh points out of 1036375 for reverse attraction.
Stringing feature edges : changed 16 points
Stringing feature edges : changed 0 points
Attraction:
    linear   : max:(-0.000159952 -0.031991 1.21431e-17) avg:(1.80915e-05 -1.19405e-11 -1.32522e-05)
    feature  : max:(-0.000780079 2.03334e-05 -0.000166187) avg:(1.37132e-07 7.31372e-11 -6.03217e-07)
Feature analysis : total master points :1021332 of which attracted to :
    feature point   : 4
    feature edge    : 9624
    nearest surface : 0
    rest            : 1011704

--> FOAM Warning : Displacement (1.11723e-06 0.000390072 -8.08779e-05) at mesh point 16818 coord (-4.59103 -1.51238 0.0761217) points through the surrounding patch faces
Smoothing displacement ...
Iteration 0
Iteration 10
Iteration 20
Iteration 30
Iteration 40
Iteration 50
Iteration 60
Iteration 70
Iteration 80
Iteration 90
Iteration 100
Iteration 110
Iteration 120
Iteration 130
Iteration 140
Iteration 150
Iteration 160
Iteration 170
Iteration 180
Iteration 190
Iteration 200
Iteration 210
Iteration 220
Iteration 230
Iteration 240
Iteration 250
Iteration 260
Iteration 270
Iteration 280
Iteration 290
Displacement smoothed in = 24.6 s


Moving mesh ...

Iteration 0
Moving mesh using displacement scaling : min:1  max:1
Checking faces in error :
    non-orthogonality > 65  degrees                        : 0
    faces with face pyramid volume < 1e-13                 : 0
    faces with face-decomposition tet quality < 1e-15      : 0
    faces with concavity > 80  degrees                     : 0
    faces with skewness > 4   (internal) or 20  (boundary) : 0
    faces with interpolation weights (0..1)  < 0.02        : 0
    faces with volume ratio of neighbour cells < 0.01      : 0
    faces with face twist < 0.02                           : 0
    faces on cells with determinant < 0.001                : 0
Successfully moved mesh
Moved mesh in = 1.61 s



Morph iteration 7
-----------------
Calculating patchDisplacement as distance to nearest surface point ...
    non-zone points : attract to nearest of all non-zone surfaces
    zone points     : attract to zone surface only

Wanted displacement : average:0.00017472 min:3.13807e-08 max:0.0271088
Calculated surface displacement in = 0.13 s


Detecting near surfaces ...
Overriding nearest with intersection of close gaps at 0 out of 1036375 points.
Overriding displacement on features :
   implicit features    : false
   explicit features    : true
   multi-patch features : false

Detected 0 baffle edges out of 2051535 edges.
Baffle points     : 0 of which attracted to :
    feature point : 0
    feature edge  : 0
    rest          : 0

Initially selected 11988 mesh points out of 1036375 for reverse attraction.
Selected 34484 mesh points out of 1036375 for reverse attraction.
Stringing feature edges : changed 14 points
Stringing feature edges : changed 0 points
Attraction:
    linear   : max:(-0.00013554 0.0271084 2.22045e-16) avg:(1.15481e-05 -6.56832e-11 -8.57574e-06)
    feature  : max:(-0.000225646 -0.000600039 0.000287547) avg:(9.79679e-08 6.22639e-11 -4.10212e-07)
Feature analysis : total master points :1021332 of which attracted to :
    feature point   : 4
    feature edge    : 9624
    nearest surface : 0
    rest            : 1011704

--> FOAM Warning : Displacement (1.48649e-06 0.000441233 -3.15679e-05) at mesh point 16818 coord (-4.59103 -1.51199 0.0760408) points through the surrounding patch faces
Smoothing displacement ...
Iteration 0
Iteration 10
Iteration 20
Iteration 30
Iteration 40
Iteration 50
Iteration 60
Iteration 70
Iteration 80
Iteration 90
Iteration 100
Iteration 110
Iteration 120
Iteration 130
Iteration 140
Iteration 150
Iteration 160
Iteration 170
Iteration 180
Iteration 190
Iteration 200
Iteration 210
Iteration 220
Iteration 230
Iteration 240
Iteration 250
Iteration 260
Iteration 270
Iteration 280
Iteration 290
Displacement smoothed in = 24.58 s


Moving mesh ...

Iteration 0
Moving mesh using displacement scaling : min:1  max:1
Checking faces in error :
    non-orthogonality > 65  degrees                        : 0
    faces with face pyramid volume < 1e-13                 : 0
    faces with face-decomposition tet quality < 1e-15      : 0
    faces with concavity > 80  degrees                     : 0
    faces with skewness > 4   (internal) or 20  (boundary) : 0
    faces with interpolation weights (0..1)  < 0.02        : 0
    faces with volume ratio of neighbour cells < 0.01      : 0
    faces with face twist < 0.02                           : 0
    faces on cells with determinant < 0.001                : 0
Successfully moved mesh
Moved mesh in = 1.58 s



Morph iteration 8
-----------------
Calculating patchDisplacement as distance to nearest surface point ...
    non-zone points : attract to nearest of all non-zone surfaces
    zone points     : attract to zone surface only

Wanted displacement : average:0.000114602 min:1.26288e-08 max:0.0232937
Calculated surface displacement in = 0.12 s


Detecting near surfaces ...
Overriding nearest with intersection of close gaps at 0 out of 1036375 points.
Overriding displacement on features :
   implicit features    : false
   explicit features    : true
   multi-patch features : false

Detected 0 baffle edges out of 2051535 edges.
Baffle points     : 0 of which attracted to :
    feature point : 0
    feature edge  : 0
    rest          : 0

Initially selected 11986 mesh points out of 1036375 for reverse attraction.
Selected 34458 mesh points out of 1036375 for reverse attraction.
Stringing feature edges : changed 12 points
Stringing feature edges : changed 0 points
Attraction:
    linear   : max:(-0.0232937 0 0) avg:(6.75863e-06 -8.50662e-11 -5.11731e-06)
    feature  : max:(-0.000192464 -0.000504071 0.000238946) avg:(6.82625e-08 8.89967e-11 -2.62991e-07)
Feature analysis : total master points :1021332 of which attracted to :
    feature point   : 4
    feature edge    : 9624
    nearest surface : 0
    rest            : 1011704

--> FOAM Warning : Displacement (1.87406e-06 0.000482667 1.34709e-05) at mesh point 16818 coord (-4.59103 -1.51155 0.0760093) points through the surrounding patch faces
Smoothing displacement ...
Iteration 0
Iteration 10
Iteration 20
Iteration 30
Iteration 40
Iteration 50
Iteration 60
Iteration 70
Iteration 80
Iteration 90
Iteration 100
Iteration 110
Iteration 120
Iteration 130
Iteration 140
Iteration 150
Iteration 160
Iteration 170
Iteration 180
Iteration 190
Iteration 200
Iteration 210
Iteration 220
Iteration 230
Iteration 240
Iteration 250
Iteration 260
Iteration 270
Iteration 280
Iteration 290
Displacement smoothed in = 24.6 s


Moving mesh ...

Iteration 0
Moving mesh using displacement scaling : min:1  max:1
Checking faces in error :
    non-orthogonality > 65  degrees                        : 0
    faces with face pyramid volume < 1e-13                 : 0
    faces with face-decomposition tet quality < 1e-15      : 0
    faces with concavity > 80  degrees                     : 0
    faces with skewness > 4   (internal) or 20  (boundary) : 0
    faces with interpolation weights (0..1)  < 0.02        : 0
    faces with volume ratio of neighbour cells < 0.01      : 0
    faces with face twist < 0.02                           : 0
    faces on cells with determinant < 0.001                : 0
Successfully moved mesh
Moved mesh in = 1.56 s



Morph iteration 9
-----------------
Calculating patchDisplacement as distance to nearest surface point ...
    non-zone points : attract to nearest of all non-zone surfaces
    zone points     : attract to zone surface only

Wanted displacement : average:7.20425e-05 min:4.83606e-10 max:0.0201442
Calculated surface displacement in = 0.12 s


Detecting near surfaces ...
Overriding nearest with intersection of close gaps at 0 out of 1036375 points.
Overriding displacement on features :
   implicit features    : false
   explicit features    : true
   multi-patch features : false

Detected 0 baffle edges out of 2051535 edges.
Baffle points     : 0 of which attracted to :
    feature point : 0
    feature edge  : 0
    rest          : 0

Initially selected 11992 mesh points out of 1036375 for reverse attraction.
Selected 34472 mesh points out of 1036375 for reverse attraction.
Stringing feature edges : changed 8 points
Stringing feature edges : changed 0 points
Attraction:
    linear   : max:(-0.0201442 0 0) avg:(3.58834e-06 -7.95024e-11 -2.79739e-06)
    feature  : max:(-9.33581e-05 -3.07207e-05 -0.000503661) avg:(4.48789e-08 4.88529e-12 -1.59929e-07)
Feature analysis : total master points :1021332 of which attracted to :
    feature point   : 4
    feature edge    : 9624
    nearest surface : 0
    rest            : 1011704

--> FOAM Warning : Displacement (-2.9482e-07 3.11173e-05 6.74555e-05) at mesh point 19044 coord (-4.66724 -1.50951 0.00589627) points through the surrounding patch faces
Smoothing displacement ...
Iteration 0
Iteration 10
Iteration 20
Iteration 30
Iteration 40
Iteration 50
Iteration 60
Iteration 70
Iteration 80
Iteration 90
Iteration 100
Iteration 110
Iteration 120
Iteration 130
Iteration 140
Iteration 150
Iteration 160
Iteration 170
Iteration 180
Iteration 190
Iteration 200
Iteration 210
Iteration 220
Iteration 230
Iteration 240
Iteration 250
Iteration 260
Iteration 270
Iteration 280
Iteration 290
Displacement smoothed in = 24.54 s


Moving mesh ...

Iteration 0
Moving mesh using displacement scaling : min:1  max:1
Checking faces in error :
    non-orthogonality > 65  degrees                        : 0
    faces with face pyramid volume < 1e-13                 : 0
    faces with face-decomposition tet quality < 1e-15      : 2
    faces with concavity > 80  degrees                     : 0
    faces with skewness > 4   (internal) or 20  (boundary) : 0
    faces with interpolation weights (0..1)  < 0.02        : 0
    faces with volume ratio of neighbour cells < 0.01      : 0
    faces with face twist < 0.02                           : 0
    faces on cells with determinant < 0.001                : 0

Iteration 1
Moving mesh using displacement scaling : min:0.75  max:1
Checking faces in error :
    non-orthogonality > 65  degrees                        : 0
    faces with face pyramid volume < 1e-13                 : 0
    faces with face-decomposition tet quality < 1e-15      : 2
    faces with concavity > 80  degrees                     : 0
    faces with skewness > 4   (internal) or 20  (boundary) : 0
    faces with interpolation weights (0..1)  < 0.02        : 0
    faces with volume ratio of neighbour cells < 0.01      : 0
    faces with face twist < 0.02                           : 0
    faces on cells with determinant < 0.001                : 0

Iteration 2
Moving mesh using displacement scaling : min:0.5625  max:1
Checking faces in error :
    non-orthogonality > 65  degrees                        : 0
    faces with face pyramid volume < 1e-13                 : 0
    faces with face-decomposition tet quality < 1e-15      : 0
    faces with concavity > 80  degrees                     : 0
    faces with skewness > 4   (internal) or 20  (boundary) : 0
    faces with interpolation weights (0..1)  < 0.02        : 0
    faces with volume ratio of neighbour cells < 0.01      : 0
    faces with face twist < 0.02                           : 0
    faces on cells with determinant < 0.001                : 0
Successfully moved mesh
Moved mesh in = 3.5 s



Morph iteration 10
-----------------
Calculating patchDisplacement as distance to nearest surface point ...
    non-zone points : attract to nearest of all non-zone surfaces
    zone points     : attract to zone surface only

Wanted displacement : average:4.42851e-05 min:6.29661e-10 max:0.0169833
Calculated surface displacement in = 0.11 s


Detecting near surfaces ...
Overriding nearest with intersection of close gaps at 4 out of 1036375 points.
Overriding displacement on features :
   implicit features    : false
   explicit features    : true
   multi-patch features : false

Detected 0 baffle edges out of 2051535 edges.
Baffle points     : 0 of which attracted to :
    feature point : 0
    feature edge  : 0
    rest          : 0

Initially selected 11990 mesh points out of 1036375 for reverse attraction.
Selected 34472 mesh points out of 1036375 for reverse attraction.
Stringing feature edges : changed 7 points
Stringing feature edges : changed 0 points
Attraction:
    linear   : max:(-0.0169833 0 0) avg:(1.70126e-06 -6.2347e-11 -1.3917e-06)
    feature  : max:(-0.000190021 0.000305353 -0.000344013) avg:(2.84722e-08 1.29903e-10 -9.22779e-08)
Feature analysis : total master points :1021332 of which attracted to :
    feature point   : 4
    feature edge    : 9624
    nearest surface : 0
    rest            : 1011704

--> FOAM Warning : Displacement (0.000147022 -1.12129e-08 0.000139503) at mesh point 16759 coord (-7.33607 -0.8382 0.0765374) points through the surrounding patch faces
Smoothing displacement ...
Iteration 0
Iteration 10
Iteration 20
Iteration 30
Iteration 40
Iteration 50
Iteration 60
Iteration 70
Iteration 80
Iteration 90
Iteration 100
Iteration 110
Iteration 120
Iteration 130
Iteration 140
Iteration 150
Iteration 160
Iteration 170
Iteration 180
Iteration 190
Iteration 200
Iteration 210
Iteration 220
Iteration 230
Iteration 240
Iteration 250
Iteration 260
Iteration 270
Iteration 280
Iteration 290
Displacement smoothed in = 24.52 s


Moving mesh ...

Iteration 0
Moving mesh using displacement scaling : min:1  max:1
Checking faces in error :
    non-orthogonality > 65  degrees                        : 0
    faces with face pyramid volume < 1e-13                 : 0
    faces with face-decomposition tet quality < 1e-15      : 2
    faces with concavity > 80  degrees                     : 0
    faces with skewness > 4   (internal) or 20  (boundary) : 0
    faces with interpolation weights (0..1)  < 0.02        : 0
    faces with volume ratio of neighbour cells < 0.01      : 0
    faces with face twist < 0.02                           : 0
    faces on cells with determinant < 0.001                : 0

Iteration 1
Moving mesh using displacement scaling : min:0.75  max:1
Checking faces in error :
    non-orthogonality > 65  degrees                        : 0
    faces with face pyramid volume < 1e-13                 : 0
    faces with face-decomposition tet quality < 1e-15      : 2
    faces with concavity > 80  degrees                     : 0
    faces with skewness > 4   (internal) or 20  (boundary) : 0
    faces with interpolation weights (0..1)  < 0.02        : 0
    faces with volume ratio of neighbour cells < 0.01      : 0
    faces with face twist < 0.02                           : 0
    faces on cells with determinant < 0.001                : 0

Iteration 2
Moving mesh using displacement scaling : min:0.5625  max:1
Checking faces in error :
    non-orthogonality > 65  degrees                        : 0
    faces with face pyramid volume < 1e-13                 : 0
    faces with face-decomposition tet quality < 1e-15      : 2
    faces with concavity > 80  degrees                     : 0
    faces with skewness > 4   (internal) or 20  (boundary) : 0
    faces with interpolation weights (0..1)  < 0.02        : 0
    faces with volume ratio of neighbour cells < 0.01      : 0
    faces with face twist < 0.02                           : 0
    faces on cells with determinant < 0.001                : 0

Iteration 3
Moving mesh using displacement scaling : min:0.421875  max:1
Checking faces in error :
    non-orthogonality > 65  degrees                        : 0
    faces with face pyramid volume < 1e-13                 : 0
    faces with face-decomposition tet quality < 1e-15      : 2
    faces with concavity > 80  degrees                     : 0
    faces with skewness > 4   (internal) or 20  (boundary) : 0
    faces with interpolation weights (0..1)  < 0.02        : 0
    faces with volume ratio of neighbour cells < 0.01      : 0
    faces with face twist < 0.02                           : 0
    faces on cells with determinant < 0.001                : 0

Iteration 4
Moving mesh using displacement scaling : min:0.316406  max:1
Checking faces in error :
    non-orthogonality > 65  degrees                        : 0
    faces with face pyramid volume < 1e-13                 : 0
    faces with face-decomposition tet quality < 1e-15      : 2
    faces with concavity > 80  degrees                     : 0
    faces with skewness > 4   (internal) or 20  (boundary) : 0
    faces with interpolation weights (0..1)  < 0.02        : 0
    faces with volume ratio of neighbour cells < 0.01      : 0
    faces with face twist < 0.02                           : 0
    faces on cells with determinant < 0.001                : 0

Iteration 5
Displacement scaling for error reduction set to 0.
Moving mesh using displacement scaling : min:0.237305  max:1
Checking faces in error :
    non-orthogonality > 65  degrees                        : 0
    faces with face pyramid volume < 1e-13                 : 0
    faces with face-decomposition tet quality < 1e-15      : 2
    faces with concavity > 80  degrees                     : 0
    faces with skewness > 4   (internal) or 20  (boundary) : 0
    faces with interpolation weights (0..1)  < 0.02        : 0
    faces with volume ratio of neighbour cells < 0.01      : 0
    faces with face twist < 0.02                           : 0
    faces on cells with determinant < 0.001                : 0

Iteration 6
Moving mesh using displacement scaling : min:0  max:1
Checking faces in error :
    non-orthogonality > 65  degrees                        : 0
    faces with face pyramid volume < 1e-13                 : 0
    faces with face-decomposition tet quality < 1e-15      : 0
    faces with concavity > 80  degrees                     : 0
    faces with skewness > 4   (internal) or 20  (boundary) : 0
    faces with interpolation weights (0..1)  < 0.02        : 0
    faces with volume ratio of neighbour cells < 0.01      : 0
    faces with face twist < 0.02                           : 0
    faces on cells with determinant < 0.001                : 0
Successfully moved mesh
Moved mesh in = 6.5 s



Morph iteration 11
-----------------
Calculating patchDisplacement as distance to nearest surface point ...
    non-zone points : attract to nearest of all non-zone surfaces
    zone points     : attract to zone surface only

Wanted displacement : average:2.69592e-05 min:8.66167e-11 max:0.0138985
Calculated surface displacement in = 0.12 s


Detecting near surfaces ...
Overriding nearest with intersection of close gaps at 12 out of 1036375 points.
Overriding displacement on features :
   implicit features    : false
   explicit features    : true
   multi-patch features : false

Detected 0 baffle edges out of 2051535 edges.
Baffle points     : 0 of which attracted to :
    feature point : 0
    feature edge  : 0
    rest          : 0

Initially selected 11990 mesh points out of 1036375 for reverse attraction.
Selected 34472 mesh points out of 1036375 for reverse attraction.
Stringing feature edges : changed 2 points
Stringing feature edges : changed 0 points
Attraction:
    linear   : max:(-0.0138985 0 0) avg:(7.00656e-07 -5.59974e-11 -6.27558e-07)
    feature  : max:(-0.000209494 -7.38574e-05 -0.00039975) avg:(1.69594e-08 -5.9531e-11 -5.15649e-08)
Feature analysis : total master points :1021332 of which attracted to :
    feature point   : 4
    feature edge    : 9624
    nearest surface : 0
    rest            : 1011704

--> FOAM Warning : Displacement (0.000314452 1.88363e-09 0.000143071) at mesh point 16759 coord (-7.33592 -0.8382 0.0766769) points through the surrounding patch faces
Smoothing displacement ...
Iteration 0
Iteration 10
Iteration 20
Iteration 30
Iteration 40
Iteration 50
Iteration 60
Iteration 70
Iteration 80
Iteration 90
Iteration 100
Iteration 110
Iteration 120
Iteration 130
Iteration 140
Iteration 150
Iteration 160
Iteration 170
Iteration 180
Iteration 190
Iteration 200
Iteration 210
Iteration 220
Iteration 230
Iteration 240
Iteration 250
Iteration 260
Iteration 270
Iteration 280
Iteration 290
Displacement smoothed in = 24.52 s


Moving mesh ...

Iteration 0
Moving mesh using displacement scaling : min:1  max:1
Checking faces in error :
    non-orthogonality > 65  degrees                        : 0
    faces with face pyramid volume < 1e-13                 : 0
    faces with face-decomposition tet quality < 1e-15      : 3
    faces with concavity > 80  degrees                     : 0
    faces with skewness > 4   (internal) or 20  (boundary) : 0
    faces with interpolation weights (0..1)  < 0.02        : 0
    faces with volume ratio of neighbour cells < 0.01      : 0
    faces with face twist < 0.02                           : 0
    faces on cells with determinant < 0.001                : 0

Iteration 1
Moving mesh using displacement scaling : min:0.75  max:1
Checking faces in error :
    non-orthogonality > 65  degrees                        : 0
    faces with face pyramid volume < 1e-13                 : 0
    faces with face-decomposition tet quality < 1e-15      : 3
    faces with concavity > 80  degrees                     : 0
    faces with skewness > 4   (internal) or 20  (boundary) : 0
    faces with interpolation weights (0..1)  < 0.02        : 0
    faces with volume ratio of neighbour cells < 0.01      : 0
    faces with face twist < 0.02                           : 0
    faces on cells with determinant < 0.001                : 0

Iteration 2
Moving mesh using displacement scaling : min:0.5625  max:1
Checking faces in error :
    non-orthogonality > 65  degrees                        : 0
    faces with face pyramid volume < 1e-13                 : 0
    faces with face-decomposition tet quality < 1e-15      : 2
    faces with concavity > 80  degrees                     : 0
    faces with skewness > 4   (internal) or 20  (boundary) : 0
    faces with interpolation weights (0..1)  < 0.02        : 0
    faces with volume ratio of neighbour cells < 0.01      : 0
    faces with face twist < 0.02                           : 0
    faces on cells with determinant < 0.001                : 0

Iteration 3
Moving mesh using displacement scaling : min:0.421875  max:1
Checking faces in error :
    non-orthogonality > 65  degrees                        : 0
    faces with face pyramid volume < 1e-13                 : 0
    faces with face-decomposition tet quality < 1e-15      : 2
    faces with concavity > 80  degrees                     : 0
    faces with skewness > 4   (internal) or 20  (boundary) : 0
    faces with interpolation weights (0..1)  < 0.02        : 0
    faces with volume ratio of neighbour cells < 0.01      : 0
    faces with face twist < 0.02                           : 0
    faces on cells with determinant < 0.001                : 0

Iteration 4
Moving mesh using displacement scaling : min:0.316406  max:1
Checking faces in error :
    non-orthogonality > 65  degrees                        : 0
    faces with face pyramid volume < 1e-13                 : 0
    faces with face-decomposition tet quality < 1e-15      : 2
    faces with concavity > 80  degrees                     : 0
    faces with skewness > 4   (internal) or 20  (boundary) : 0
    faces with interpolation weights (0..1)  < 0.02        : 0
    faces with volume ratio of neighbour cells < 0.01      : 0
    faces with face twist < 0.02                           : 0
    faces on cells with determinant < 0.001                : 0

Iteration 5
Displacement scaling for error reduction set to 0.
Moving mesh using displacement scaling : min:0.237305  max:1
Checking faces in error :
    non-orthogonality > 65  degrees                        : 0
    faces with face pyramid volume < 1e-13                 : 0
    faces with face-decomposition tet quality < 1e-15      : 2
    faces with concavity > 80  degrees                     : 0
    faces with skewness > 4   (internal) or 20  (boundary) : 0
    faces with interpolation weights (0..1)  < 0.02        : 0
    faces with volume ratio of neighbour cells < 0.01      : 0
    faces with face twist < 0.02                           : 0
    faces on cells with determinant < 0.001                : 0

Iteration 6
Moving mesh using displacement scaling : min:0  max:1
Checking faces in error :
    non-orthogonality > 65  degrees                        : 0
    faces with face pyramid volume < 1e-13                 : 0
    faces with face-decomposition tet quality < 1e-15      : 0
    faces with concavity > 80  degrees                     : 0
    faces with skewness > 4   (internal) or 20  (boundary) : 0
    faces with interpolation weights (0..1)  < 0.02        : 0
    faces with volume ratio of neighbour cells < 0.01      : 0
    faces with face twist < 0.02                           : 0
    faces on cells with determinant < 0.001                : 0
Successfully moved mesh
Moved mesh in = 6.49 s



Morph iteration 12
-----------------
Calculating patchDisplacement as distance to nearest surface point ...
    non-zone points : attract to nearest of all non-zone surfaces
    zone points     : attract to zone surface only

Wanted displacement : average:1.62793e-05 min:3.54911e-11 max:0.010982
Calculated surface displacement in = 0.12 s


Detecting near surfaces ...
Overriding nearest with intersection of close gaps at 22 out of 1036375 points.
Overriding displacement on features :
   implicit features    : false
   explicit features    : true
   multi-patch features : false

Detected 0 baffle edges out of 2051535 edges.
Baffle points     : 0 of which attracted to :
    feature point : 0
    feature edge  : 0
    rest          : 0

Initially selected 11990 mesh points out of 1036375 for reverse attraction.
Selected 34466 mesh points out of 1036375 for reverse attraction.
Stringing feature edges : changed 2 points
Stringing feature edges : changed 0 points
Attraction:
    linear   : max:(-0.010982 0 0) avg:(2.3492e-07 -1.0891e-11 -2.57156e-07)
    feature  : max:(-0.000133935 -4.72881e-05 -0.000255911) avg:(9.89413e-09 -9.44845e-12 -2.69952e-08)
Feature analysis : total master points :1021332 of which attracted to :
    feature point   : 4
    feature edge    : 9624
    nearest surface : 0
    rest            : 1011704

--> FOAM Warning : Displacement (0.00015768 2.30047e-08 0.000206833) at mesh point 19008 coord (-7.33541 -0.8382 0.0061617) points through the surrounding patch faces
Smoothing displacement ...
Iteration 0
Iteration 10
Iteration 20
Iteration 30
Iteration 40
Iteration 50
Iteration 60
Iteration 70
Iteration 80
Iteration 90
Iteration 100
Iteration 110
Iteration 120
Iteration 130
Iteration 140
Iteration 150
Iteration 160
Iteration 170
Iteration 180
Iteration 190
Iteration 200
Iteration 210
Iteration 220
Iteration 230
Iteration 240
Iteration 250
Iteration 260
Iteration 270
Iteration 280
Iteration 290
Displacement smoothed in = 24.56 s


Moving mesh ...

Iteration 0
Moving mesh using displacement scaling : min:1  max:1
Checking faces in error :
    non-orthogonality > 65  degrees                        : 0
    faces with face pyramid volume < 1e-13                 : 0
    faces with face-decomposition tet quality < 1e-15      : 4
    faces with concavity > 80  degrees                     : 0
    faces with skewness > 4   (internal) or 20  (boundary) : 0
    faces with interpolation weights (0..1)  < 0.02        : 0
    faces with volume ratio of neighbour cells < 0.01      : 0
    faces with face twist < 0.02                           : 0
    faces on cells with determinant < 0.001                : 0

Iteration 1
Moving mesh using displacement scaling : min:0.75  max:1
Checking faces in error :
    non-orthogonality > 65  degrees                        : 0
    faces with face pyramid volume < 1e-13                 : 0
    faces with face-decomposition tet quality < 1e-15      : 4
    faces with concavity > 80  degrees                     : 0
    faces with skewness > 4   (internal) or 20  (boundary) : 0
    faces with interpolation weights (0..1)  < 0.02        : 0
    faces with volume ratio of neighbour cells < 0.01      : 0
    faces with face twist < 0.02                           : 0
    faces on cells with determinant < 0.001                : 0

Iteration 2
Moving mesh using displacement scaling : min:0.5625  max:1
Checking faces in error :
    non-orthogonality > 65  degrees                        : 0
    faces with face pyramid volume < 1e-13                 : 0
    faces with face-decomposition tet quality < 1e-15      : 4
    faces with concavity > 80  degrees                     : 0
    faces with skewness > 4   (internal) or 20  (boundary) : 0
[...]
    faces on cells with determinant < 0.001                : 0

Iteration 2
Moving mesh using displacement scaling : min:0.5625  max:1
Checking faces in error :
    non-orthogonality > 65  degrees                        : 0
    faces with face pyramid volume < 1e-13                 : 0
    faces with face-decomposition tet quality < 1e-15      : 11
    faces with concavity > 80  degrees                     : 0
    faces with skewness > 4   (internal) or 20  (boundary) : 0
    faces with interpolation weights (0..1)  < 0.02        : 0
    faces with volume ratio of neighbour cells < 0.01      : 0
    faces with face twist < 0.02                           : 1
    faces on cells with determinant < 0.001                : 0

Iteration 3
Moving mesh using displacement scaling : min:0.421875  max:1
Checking faces in error :
    non-orthogonality > 65  degrees                        : 0
    faces with face pyramid volume < 1e-13                 : 0
    faces with face-decomposition tet quality < 1e-15      : 11
    faces with concavity > 80  degrees                     : 0
    faces with skewness > 4   (internal) or 20  (boundary) : 0
    faces with interpolation weights (0..1)  < 0.02        : 0
    faces with volume ratio of neighbour cells < 0.01      : 0
    faces with face twist < 0.02                           : 1
    faces on cells with determinant < 0.001                : 0

Iteration 4
Moving mesh using displacement scaling : min:0.316406  max:1
Checking faces in error :
    non-orthogonality > 65  degrees                        : 0
    faces with face pyramid volume < 1e-13                 : 0
    faces with face-decomposition tet quality < 1e-15      : 10
    faces with concavity > 80  degrees                     : 0
    faces with skewness > 4   (internal) or 20  (boundary) : 0
    faces with interpolation weights (0..1)  < 0.02        : 0
    faces with volume ratio of neighbour cells < 0.01      : 0
    faces with face twist < 0.02                           : 2
    faces on cells with determinant < 0.001                : 0

Iteration 5
Displacement scaling for error reduction set to 0.
Moving mesh using displacement scaling : min:0.237305  max:1
Checking faces in error :
    non-orthogonality > 65  degrees                        : 0
    faces with face pyramid volume < 1e-13                 : 0
    faces with face-decomposition tet quality < 1e-15      : 10
    faces with concavity > 80  degrees                     : 0
    faces with skewness > 4   (internal) or 20  (boundary) : 0
    faces with interpolation weights (0..1)  < 0.02        : 0
    faces with volume ratio of neighbour cells < 0.01      : 0
    faces with face twist < 0.02                           : 2
    faces on cells with determinant < 0.001                : 0

Iteration 6
Moving mesh using displacement scaling : min:0  max:1
Checking faces in error :
    non-orthogonality > 65  degrees                        : 0
    faces with face pyramid volume < 1e-13                 : 0
    faces with face-decomposition tet quality < 1e-15      : 0
    faces with concavity > 80  degrees                     : 0
    faces with skewness > 4   (internal) or 20  (boundary) : 0
    faces with interpolation weights (0..1)  < 0.02        : 0
    faces with volume ratio of neighbour cells < 0.01      : 0
    faces with face twist < 0.02                           : 0
    faces on cells with determinant < 0.001                : 0
Successfully moved mesh
Moved mesh in = 6.77 s



Morph iteration 18
-----------------
Calculating patchDisplacement as distance to nearest surface point ...
    non-zone points : attract to nearest of all non-zone surfaces
    zone points     : attract to zone surface only

Wanted displacement : average:2.89595e-07 min:5.32907e-15 max:0.000873475
Calculated surface displacement in = 0.11 s


Detecting near surfaces ...
Overriding nearest with intersection of close gaps at 5 out of 1036375 points.
Overriding displacement on features :
   implicit features    : false
   explicit features    : true
   multi-patch features : false

Detected 0 baffle edges out of 2051535 edges.
Baffle points     : 0 of which attracted to :
    feature point : 0
    feature edge  : 0
    rest          : 0

Initially selected 11990 mesh points out of 1036375 for reverse attraction.
Selected 34466 mesh points out of 1036375 for reverse attraction.
Stringing feature edges : changed 2 points
Stringing feature edges : changed 0 points
Attraction:
    linear   : max:(-0.000873475 0 0) avg:(-6.22218e-09 9.41761e-12 -2.56958e-09)
    feature  : max:(-0.000105983 0.000169482 -0.000191526) avg:(-3.12476e-11 -4.13489e-12 -4.93065e-10)
Feature analysis : total master points :1021332 of which attracted to :
    feature point   : 4
    feature edge    : 9624
    nearest surface : 0
    rest            : 1011704

--> FOAM Warning : Displacement (3.76123e-05 9.29936e-09 1.74165e-05) at mesh point 19008 coord (-7.33429 -0.8382 0.00687003) points through the surrounding patch faces
Smoothing displacement ...
Iteration 0
Iteration 10
Iteration 20
Iteration 30
Iteration 40
Iteration 50
Iteration 60
Iteration 70
Iteration 80
Iteration 90
Iteration 100
Iteration 110
Iteration 120
Iteration 130
Iteration 140
Iteration 150
Iteration 160
Iteration 170
Iteration 180
Iteration 190
Iteration 200
Iteration 210
Iteration 220
Iteration 230
Iteration 240
Iteration 250
Iteration 260
Iteration 270
Iteration 280
Iteration 290
Displacement smoothed in = 24.64 s


Moving mesh ...

Iteration 0
Moving mesh using displacement scaling : min:1  max:1
Checking faces in error :
    non-orthogonality > 65  degrees                        : 0
    faces with face pyramid volume < 1e-13                 : 0
    faces with face-decomposition tet quality < 1e-15      : 12
    faces with concavity > 80  degrees                     : 0
    faces with skewness > 4   (internal) or 20  (boundary) : 0
    faces with interpolation weights (0..1)  < 0.02        : 0
    faces with volume ratio of neighbour cells < 0.01      : 0
    faces with face twist < 0.02                           : 0
    faces on cells with determinant < 0.001                : 0

Iteration 1
Moving mesh using displacement scaling : min:0.75  max:1
Checking faces in error :
    non-orthogonality > 65  degrees                        : 0
    faces with face pyramid volume < 1e-13                 : 0
    faces with face-decomposition tet quality < 1e-15      : 12
    faces with concavity > 80  degrees                     : 0
    faces with skewness > 4   (internal) or 20  (boundary) : 0
    faces with interpolation weights (0..1)  < 0.02        : 0
    faces with volume ratio of neighbour cells < 0.01      : 0
    faces with face twist < 0.02                           : 0
    faces on cells with determinant < 0.001                : 0

Iteration 2
Moving mesh using displacement scaling : min:0.5625  max:1
Checking faces in error :
    non-orthogonality > 65  degrees                        : 0
    faces with face pyramid volume < 1e-13                 : 0
    faces with face-decomposition tet quality < 1e-15      : 11
    faces with concavity > 80  degrees                     : 0
    faces with skewness > 4   (internal) or 20  (boundary) : 0
    faces with interpolation weights (0..1)  < 0.02        : 0
    faces with volume ratio of neighbour cells < 0.01      : 0
    faces with face twist < 0.02                           : 1
    faces on cells with determinant < 0.001                : 0

Iteration 3
Moving mesh using displacement scaling : min:0.421875  max:1
Checking faces in error :
    non-orthogonality > 65  degrees                        : 0
    faces with face pyramid volume < 1e-13                 : 0
    faces with face-decomposition tet quality < 1e-15      : 11
    faces with concavity > 80  degrees                     : 0
    faces with skewness > 4   (internal) or 20  (boundary) : 0
    faces with interpolation weights (0..1)  < 0.02        : 0
    faces with volume ratio of neighbour cells < 0.01      : 0
    faces with face twist < 0.02                           : 1
    faces on cells with determinant < 0.001                : 0

Iteration 4
Moving mesh using displacement scaling : min:0.316406  max:1
Checking faces in error :
    non-orthogonality > 65  degrees                        : 0
    faces with face pyramid volume < 1e-13                 : 0
    faces with face-decomposition tet quality < 1e-15      : 10
    faces with concavity > 80  degrees                     : 0
    faces with skewness > 4   (internal) or 20  (boundary) : 0
    faces with interpolation weights (0..1)  < 0.02        : 0
    faces with volume ratio of neighbour cells < 0.01      : 0
    faces with face twist < 0.02                           : 2
    faces on cells with determinant < 0.001                : 0

Iteration 5
Displacement scaling for error reduction set to 0.
Moving mesh using displacement scaling : min:0.237305  max:1
Checking faces in error :
    non-orthogonality > 65  degrees                        : 0
    faces with face pyramid volume < 1e-13                 : 0
    faces with face-decomposition tet quality < 1e-15      : 10
    faces with concavity > 80  degrees                     : 0
    faces with skewness > 4   (internal) or 20  (boundary) : 0
    faces with interpolation weights (0..1)  < 0.02        : 0
    faces with volume ratio of neighbour cells < 0.01      : 0
    faces with face twist < 0.02                           : 2
    faces on cells with determinant < 0.001                : 0

Iteration 6
Moving mesh using displacement scaling : min:0  max:1
Checking faces in error :
    non-orthogonality > 65  degrees                        : 0
    faces with face pyramid volume < 1e-13                 : 0
    faces with face-decomposition tet quality < 1e-15      : 0
    faces with concavity > 80  degrees                     : 0
    faces with skewness > 4   (internal) or 20  (boundary) : 0
    faces with interpolation weights (0..1)  < 0.02        : 0
    faces with volume ratio of neighbour cells < 0.01      : 0
    faces with face twist < 0.02                           : 0
    faces on cells with determinant < 0.001                : 0
Successfully moved mesh
Moved mesh in = 6.73 s



Morph iteration 19
-----------------
Calculating patchDisplacement as distance to nearest surface point ...
    non-zone points : attract to nearest of all non-zone surfaces
    zone points     : attract to zone surface only

Wanted displacement : average:1.04621e-07 min:5.9952e-15 max:0.000456475
Calculated surface displacement in = 0.11 s


Detecting near surfaces ...
Overriding nearest with intersection of close gaps at 4 out of 1036375 points.
Overriding displacement on features :
   implicit features    : false
   explicit features    : true
   multi-patch features : false

Detected 0 baffle edges out of 2051535 edges.
Baffle points     : 0 of which attracted to :
    feature point : 0
    feature edge  : 0
    rest          : 0

Initially selected 11990 mesh points out of 1036375 for reverse attraction.
Selected 34466 mesh points out of 1036375 for reverse attraction.
Stringing feature edges : changed 2 points
Stringing feature edges : changed 0 points
Attraction:
    linear   : max:(-2.2823e-06 -0.000456469 0) avg:(-3.01775e-09 8.91804e-12 -1.82838e-09)
    feature  : max:(-0.000105983 0.000169482 -0.000191526) avg:(-6.39503e-11 -3.21568e-12 -4.57839e-10)
Feature analysis : total master points :1021332 of which attracted to :
    feature point   : 4
    feature edge    : 9624
    nearest surface : 0
    rest            : 1011704

--> FOAM Warning : Displacement (2.04074e-05 0 -4.33681e-18) at mesh point 19008 coord (-7.33425 -0.8382 0.00688745) points through the surrounding patch faces
Smoothing displacement ...
Iteration 0
Iteration 10
Iteration 20
Iteration 30
Iteration 40
Iteration 50
Iteration 60
Iteration 70
Iteration 80
Iteration 90
Iteration 100
Iteration 110
Iteration 120
Iteration 130
Iteration 140
Iteration 150
Iteration 160
Iteration 170
Iteration 180
Iteration 190
Iteration 200
Iteration 210
Iteration 220
Iteration 230
Iteration 240
Iteration 250
Iteration 260
Iteration 270
Iteration 280
Iteration 290
Displacement smoothed in = 23.53 s


Moving mesh ...

Iteration 0
Moving mesh using displacement scaling : min:1  max:1
Checking faces in error :
    non-orthogonality > 65  degrees                        : 0
    faces with face pyramid volume < 1e-13                 : 0
    faces with face-decomposition tet quality < 1e-15      : 12
    faces with concavity > 80  degrees                     : 0
    faces with skewness > 4   (internal) or 20  (boundary) : 0
    faces with interpolation weights (0..1)  < 0.02        : 0
    faces with volume ratio of neighbour cells < 0.01      : 0
    faces with face twist < 0.02                           : 0
    faces on cells with determinant < 0.001                : 0

Iteration 1
Moving mesh using displacement scaling : min:0.75  max:1
Checking faces in error :
    non-orthogonality > 65  degrees                        : 0
    faces with face pyramid volume < 1e-13                 : 0
    faces with face-decomposition tet quality < 1e-15      : 12
    faces with concavity > 80  degrees                     : 0
    faces with skewness > 4   (internal) or 20  (boundary) : 0
    faces with interpolation weights (0..1)  < 0.02        : 0
    faces with volume ratio of neighbour cells < 0.01      : 0
    faces with face twist < 0.02                           : 0
    faces on cells with determinant < 0.001                : 0

Iteration 2
Moving mesh using displacement scaling : min:0.5625  max:1
Checking faces in error :
    non-orthogonality > 65  degrees                        : 0
    faces with face pyramid volume < 1e-13                 : 0
    faces with face-decomposition tet quality < 1e-15      : 11
    faces with concavity > 80  degrees                     : 0
    faces with skewness > 4   (internal) or 20  (boundary) : 0
    faces with interpolation weights (0..1)  < 0.02        : 0
    faces with volume ratio of neighbour cells < 0.01      : 0
    faces with face twist < 0.02                           : 1
    faces on cells with determinant < 0.001                : 0

Iteration 3
Moving mesh using displacement scaling : min:0.421875  max:1
Checking faces in error :
    non-orthogonality > 65  degrees                        : 0
    faces with face pyramid volume < 1e-13                 : 0
    faces with face-decomposition tet quality < 1e-15      : 11
    faces with concavity > 80  degrees                     : 0
    faces with skewness > 4   (internal) or 20  (boundary) : 0
    faces with interpolation weights (0..1)  < 0.02        : 0
    faces with volume ratio of neighbour cells < 0.01      : 0
    faces with face twist < 0.02                           : 1
    faces on cells with determinant < 0.001                : 0

Iteration 4
Moving mesh using displacement scaling : min:0.316406  max:1
Checking faces in error :
    non-orthogonality > 65  degrees                        : 0
    faces with face pyramid volume < 1e-13                 : 0
    faces with face-decomposition tet quality < 1e-15      : 10
    faces with concavity > 80  degrees                     : 0
    faces with skewness > 4   (internal) or 20  (boundary) : 0
    faces with interpolation weights (0..1)  < 0.02        : 0
    faces with volume ratio of neighbour cells < 0.01      : 0
    faces with face twist < 0.02                           : 2
    faces on cells with determinant < 0.001                : 0

Iteration 5
Displacement scaling for error reduction set to 0.
Moving mesh using displacement scaling : min:0.237305  max:1
Checking faces in error :
    non-orthogonality > 65  degrees                        : 0
    faces with face pyramid volume < 1e-13                 : 0
    faces with face-decomposition tet quality < 1e-15      : 10
    faces with concavity > 80  degrees                     : 0
    faces with skewness > 4   (internal) or 20  (boundary) : 0
    faces with interpolation weights (0..1)  < 0.02        : 0
    faces with volume ratio of neighbour cells < 0.01      : 0
    faces with face twist < 0.02                           : 2
    faces on cells with determinant < 0.001                : 0

Iteration 6
Moving mesh using displacement scaling : min:0  max:1
Checking faces in error :
    non-orthogonality > 65  degrees                        : 0
    faces with face pyramid volume < 1e-13                 : 0
    faces with face-decomposition tet quality < 1e-15      : 0
    faces with concavity > 80  degrees                     : 0
    faces with skewness > 4   (internal) or 20  (boundary) : 0
    faces with interpolation weights (0..1)  < 0.02        : 0
    faces with volume ratio of neighbour cells < 0.01      : 0
    faces with face twist < 0.02                           : 0
    faces on cells with determinant < 0.001                : 0
Successfully moved mesh
Moved mesh in = 6.98 s


Repatching faces according to nearest surface ...
Repatched 8 faces in = 0.99 s


Edge intersection testing:
    Number of edges             : 39613236
    Number of edges to retest   : 10650387
    Number of intersected edges : 1015170
Merging 21125 sets of faces.

Edge intersection testing:
    Number of edges             : 39590587
    Number of edges to retest   : 88674
    Number of intersected edges : 992521

Undo iteration 0
----------------
Checking faces in error :
    non-orthogonality > 65  degrees                        : 0
    faces with face pyramid volume < 1e-13                 : 0
    faces with face-decomposition tet quality < 1e-15      : 0
    faces with concavity > 80  degrees                     : 0
    faces with skewness > 4   (internal) or 20  (boundary) : 0
    faces with interpolation weights (0..1)  < 0.02        : 0
    faces with volume ratio of neighbour cells < 0.01      : 0
    faces with face twist < 0.02                           : 0
    faces on cells with determinant < 0.001                : 0

Merging all points on surface that
- are used by only two boundary faces and
- make an angle with a cosine of more than 0.866025.

Removing 19924 straight edge points ...

Edge intersection testing:
    Number of edges             : 39590587
    Number of edges to retest   : 86414
    Number of intersected edges : 992521

Undo iteration 0
----------------
Checking faces in error :
    non-orthogonality > 65  degrees                        : 0
    faces with face pyramid volume < 1e-13                 : 0
    faces with face-decomposition tet quality < 1e-15      : 0
    faces with concavity > 80  degrees                     : 0
    faces with skewness > 4   (internal) or 20  (boundary) : 0
    faces with interpolation weights (0..1)  < 0.02        : 0
    faces with volume ratio of neighbour cells < 0.01      : 0
    faces with face twist < 0.02                           : 0
    faces on cells with determinant < 0.001                : 0
Snapped mesh : cells:12794134  faces:39590587  points:14009667
Cells per refinement level:
    0	104568
    1	327394
    2	1166128
    3	3728763
    4	685689
    5	4537422
    6	2244170
Writing mesh to time 2
Wrote mesh in = 19.11 s.
Mesh snapped in = 606.96 s.
Checking final mesh ...
Checking faces in error :
    non-orthogonality > 65  degrees                        : 0
    faces with face pyramid volume < 1e-13                 : 0
    faces with face-decomposition tet quality < 1e-15      : 0
    faces with concavity > 80  degrees                     : 0
    faces with skewness > 4   (internal) or 20  (boundary) : 0
    faces with interpolation weights (0..1)  < 0.02        : 0
    faces with volume ratio of neighbour cells < 0.01      : 0
    faces with face twist < 0.02                           : 0
    faces on cells with determinant < 0.001                : 0
Finished meshing without any errors
Finished meshing in = 741.13 s.
End

Finalising parallel run
