/*---------------------------------------------------------------------------*\
  =========                 |
  \\      /  F ield         | OpenFOAM: The Open Source CFD Toolbox
   \\    /   O peration     | Website:  https://openfoam.org
    \\  /    A nd           | Version:  7
     \\/     M anipulation  |
\*---------------------------------------------------------------------------*/
Build  : 7
Exec   : snappyHexMesh -parallel -overwrite
Date   : Aug 25 2022
Time   : 16:28:31
Host   : "compute-0-8.local"
PID    : 73038
I/O    : uncollated
Case   : /share/storage/finzeo/Mallas/GTSTunay/gtsconverted26
nProcs : 40
Slaves : 
39
(
"compute-0-8.local.73039"
"compute-0-8.local.73040"
"compute-0-8.local.73041"
"compute-0-8.local.73042"
"compute-0-8.local.73043"
"compute-0-8.local.73044"
"compute-0-8.local.73045"
"compute-0-8.local.73046"
"compute-0-8.local.73047"
"compute-0-8.local.73048"
"compute-0-8.local.73049"
"compute-0-8.local.73050"
"compute-0-8.local.73051"
"compute-0-8.local.73052"
"compute-0-8.local.73053"
"compute-0-8.local.73054"
"compute-0-8.local.73055"
"compute-0-8.local.73056"
"compute-0-8.local.73057"
"compute-0-13.local.68361"
"compute-0-13.local.68362"
"compute-0-13.local.68363"
"compute-0-13.local.68364"
"compute-0-13.local.68365"
"compute-0-13.local.68366"
"compute-0-13.local.68367"
"compute-0-13.local.68368"
"compute-0-13.local.68369"
"compute-0-13.local.68370"
"compute-0-13.local.68371"
"compute-0-13.local.68372"
"compute-0-13.local.68373"
"compute-0-13.local.68374"
"compute-0-13.local.68375"
"compute-0-13.local.68376"
"compute-0-13.local.68377"
"compute-0-13.local.68378"
"compute-0-13.local.68379"
"compute-0-13.local.68380"
)

Pstream initialized with:
    floatTransfer      : 0
    nProcsSimpleSum    : 0
    commsType          : nonBlocking
    polling iterations : 0
sigFpe : Enabling floating point exception trapping (FOAM_SIGFPE).
fileModificationChecking : Monitoring run-time modified files using timeStampMaster (fileModificationSkew 10)
allowSystemOperations : Allowing user-supplied system call operations

// * * * * * * * * * * * * * * * * * * * * * * * * * * * * * * * * * * * * * //
Create time

Create mesh for time = 0

Read mesh in = 0.22 s

Overall mesh bounding box  : (-37.8 -18 -0.50401) (117 18 32.4)
Relative tolerance         : 1e-06
Absolute matching distance : 0.000162301

Reading refinement surfaces.
Read refinement surfaces in = 5.9 s

Reading refinement shells.
Refinement level according to distance to gtsModel
    level 6 for all cells within 0.03 metre.
Refinement level 1 for all cells inside refinementBox1
Refinement level 3 for all cells inside refinementBox2
Refinement level 2 for all cells inside inletRefinementBox
Refinement level 2 for all cells inside outletRefinementBox
Read refinement shells in = 0 s

Setting refinement level of surface to be consistent with shells.
Checked shell refinement in = 0 s

Reading features.
Read edgeMesh vehicleSurfaceMesh.eMesh
    points      : 4026
    edges       : 4026
    boundingBox : (-12.185 -1.3 0) (0 1.3 3.6)

Refinement level according to distance to "vehicleSurfaceMesh.eMesh" (4026 points, 4026 edges).
    level 7 for all cells within 0 metre.
Read edgeMesh topMesh.eMesh
    points      : 424
    edges       : 424
    boundingBox : (-37.8 -18 32.4) (117 18 32.4)

Refinement level according to distance to "topMesh.eMesh" (424 points, 424 edges).
    level 0 for all cells within 0 metre.
Read edgeMesh inletMesh.eMesh
    points      : 460
    edges       : 460
    boundingBox : (-37.8 -18 -0.504) (-37.8 18 32.4)

Refinement level according to distance to "inletMesh.eMesh" (460 points, 460 edges).
    level 0 for all cells within 0 metre.
Read edgeMesh outletMesh.eMesh
    points      : 460
    edges       : 460
    boundingBox : (117 -18 -0.504) (117 18 32.4)

Refinement level according to distance to "outletMesh.eMesh" (460 points, 460 edges).
    level 0 for all cells within 0 metre.
Read edgeMesh lateralMesh.eMesh
    points      : 836
    edges       : 836
    boundingBox : (-37.8 -18 -0.504) (117 18 32.4)

Refinement level according to distance to "lateralMesh.eMesh" (836 points, 836 edges).
    level 0 for all cells within 0 metre.
Read features in = 0.22 s


Determining initial surface intersections
-----------------------------------------

Edge intersection testing:
    Number of edges             : 2587170
    Number of edges to retest   : 2587170
    Number of intersected edges : 66384
Calculated surface intersections in = 4.3 s

Initial mesh : cells:851400  faces:2587170  points:884744
Cells per refinement level:
    0	851400

Adding patches for surface regions
----------------------------------

Patch Type                Region                        
----- ----                ------                        
gtsModel:

5     wall                gtsModel                      

inlet:

6     patch               inlet                         

outlet:

7     patch               outlet                        

lateral:

8     patch               lateral                       

top:

9     patch               top                           

bottomNoSlip:

10    wall                bottomNoSlip                  

bottomSlip:

[10]  Foam::decompositionMethod::New 
[10] {
[10]     numberOfSubdomains 40;
[10]     method          scotch;
[10]     simpleCoeffs
[10]     {
[10]         n               ( 4 1 1 );
[10]         delta           0.001;
[10]     }
[10]     hierarchicalCoeffs
[10]     {
[10]         n               ( 3 2 1 );
[10]         delta           0.001;
[10]         order           xyz;
[10]     }
[10]     manualCoeffs
[10]     {
[10]         dataFile        "cellDecomposition";
[10]     }
[10]     scotchCoeffs
[10]     {
[10]         processorWeights ( 1 1 1 1 1 1 1 1 1 1 1 1 1 1 1 1 1 1 1 1 1 1 1 1 1 1 1 1 1 1 1 1 1 1 1 1 1 1 1 1 );
[10]     }
[10] }
[14]  Foam::decompositionMethod::New 
[14] {
[14]     numberOfSubdomains 40;
[14]     method          scotch;
[14]     simpleCoeffs
[14]     {
[14]         n               ( 4 1 1 );
[14]         delta           0.001;
[14]     }
[14]     hierarchicalCoeffs
[14]     {
[14]         n               ( 3 2 1 );
[14]         delta           0.001;
[14]         order           xyz;
[14]     }
[14]     manualCoeffs
[14]     {
[14]         dataFile        "cellDecomposition";
[14]     }
[14]     scotchCoeffs
[14]     {
[14]         processorWeights ( 1 1 1 1 1 1 1 1 1 1 1 1 1 1 1 1 1 1 1 1 1 1 1 1 1 1 1 1 1 1 1 1 1 1 1 1 1 1 1 1 );
[14]     }
[14] }
[14] 
[14] Selecting decompositionMethod scotch
[10] 
[10] Selecting decompositionMethod scotch
[9]  Foam::decompositionMethod::New 
[9] {
[9]     numberOfSubdomains 40;
[9]     method          scotch;
[9]     simpleCoeffs
[9]     {
[9]         n               ( 4 1 1 );
[9]         delta           0.001;
[9]     }
[9]     hierarchicalCoeffs
[9]     {
[9]         n               ( 3 2 1 );
[9]         delta           0.001;
[9]         order           xyz;
[9]     }
[9]     manualCoeffs
[9]     {
[9]         dataFile        "cellDecomposition";
[9]     }
[9]     scotchCoeffs
[9]     {
[9]         processorWeights ( 1 1 1 1 1 1 1 1 1 1 1 1 1 1 1 1 1 1 1 1 1 1 1 1 1 1 1 1 1 1 1 1 1 1 1 1 1 1 1 1 );
[9]     }
[9] }
[9] 
[9] Selecting decompositionMethod scotch
[25]  Foam::decompositionMethod::New 
[25] {
[25]     numberOfSubdomains 40;
[25]     method          scotch;
[25]     simpleCoeffs
[25]     {
[25]         n               ( 4 1 1 );
[25]         delta           0.001;
[26]  Foam::decompositionMethod::New 
[26] {
[26]     numberOfSubdomains 40;
[26]     method          scotch;
[26]     simpleCoeffs
[26]     {
[26]         n               ( 4 1 1 );
[26]         delta           0.001;
[26]     }
[26]     hierarchicalCoeffs
[26]     {
[26]         n               ( 3 2 1 );
[26]         delta           0.001;
[26]         order           xyz;
[26]     }
[26]     manualCoeffs
[26]     {
[26]         dataFile        "cellDecomposition";
[26]     }
[26]     scotchCoeffs
[26]     {
[26]         processorWeights ( 1 1 1 1 1 1 1 1 1 1 1 1 1 1 1 1 1 1 1 1 1 1 1 1 1 1 1 1 1 1 1 1 1 1 1 1 1 1 1 1 );
[26]     }
[26] }
[26] 
[26] Selecting decompositionMethod scotch
[25]     }
[25]     hierarchicalCoeffs
[25]     {
[25]         n               ( 3 2 1 );
[25]         delta           0.001;
[25]         order           xyz;
[25]     }
[25]     manualCoeffs
[25]     {
[25]         dataFile        "cellDecomposition";
[25]     }
[25]     scotchCoeffs
[25]     {
[25]         processorWeights ( 1 1 1 1 1 1 1 1 1 1 1 1 1 1 1 1 1 1 1 1 1 1 1 1 1 1 1 1 1 1 1 1 1 1 1 1 1 1 1 1 );
[25]     }
[25] }
[25] 
[25] Selecting decompositionMethod scotch
[13]  Foam::decompositionMethod::New 
[13] {
[13]     numberOfSubdomains 40;
[13]     method          scotch;
[13]     simpleCoeffs
[13]     {
[13]         n               ( 4 1 1 );
[13]         delta           0.001;
[13]     }
[13]     hierarchicalCoeffs
[13]     {
[13]         n               ( 3 2 1 );
[13]         delta           0.001;
[13]         order           xyz;
[13]     }
[13]     manualCoeffs
[13]     {
[13]         dataFile        "cellDecomposition";
[13]     }
[13]     scotchCoeffs
[13]     {
[13]         processorWeights ( 1 1 1 1 1 1 1 1 1 1 1 1 1 1 1 1 1 1 1 1 1 1 1 1 1 1 1 1 1 1 1 1 1 1 1 1 1 1 1 1 );
[13]     }
[13] }
[13] 
[13] Selecting decompositionMethod scotch
[17]  Foam::decompositionMethod::New 
[17] {
[17]     numberOfSubdomains 40;
[17]     method          scotch;
[17]     simpleCoeffs
[17]     {
[17]         n               ( 4 1 1 );
[17]         delta           0.001;
[17]     }
[17]     hierarchicalCoeffs
[17]     {
[17]         n               ( 3 2 1 );
[17]         delta           0.001;
[17]         order           xyz;
[17]     }
[17]     manualCoeffs
[17]     {
[17]         dataFile        "cellDecomposition";
[17]     }
[17]     scotchCoeffs
[17]     {
[17]         processorWeights ( 1 1 1 1 1 1 1 1 1 1 1 1 1 1 1 1 1 1 1 1 1 1 1 1 1 1 1 1 1 1 1 1 1 1 1 1 1 1 1 1 );
[17]     }
[17] }
[17] 
[17] Selecting decompositionMethod scotch
[1]  Foam::decompositionMethod::New 
[1] {
[1]     numberOfSubdomains 40;
[1]     method          scotch;
[1]     simpleCoeffs
[1]     {
[1]         n               ( 4 1 1 );
[1]         delta           0.001;
[1]     }
[1]     hierarchicalCoeffs
[1]     {
[1]         n               ( 3 2 1 );
[1]         delta           0.001;
[1]         order           xyz;
[1]     }
[1]     manualCoeffs
[1]     {
[1]         dataFile        "cellDecomposition";
[1]     }
[1]     scotchCoeffs
[1]     {
[1]         processorWeights ( 1 1 1 1 1 1 1 1 1 1 1 1 1 1 1 1 1 1 1 1 1 1 1 1 1 1 1 1 1 1 1 1 1 1 1 1 1 1 1 1 );
[1]     }
[1] }
[1] 
[1] Selecting decompositionMethod scotch
[24]  Foam::decompositionMethod::New 
[24] {
[24]     numberOfSubdomains 40;
[24]     method          scotch;
[24]     simpleCoeffs
[24]     {
[24]         n               ( 4 1 1 );
[24]         delta           0.001;
[24]     }
[24]     hierarchicalCoeffs
[24]     {
[24]         n               ( 3 2 1 );
[24]         delta           0.001;
[24]         order           xyz;
[24]     }
[24]     manualCoeffs
[24]     {
[24]         dataFile        "cellDecomposition";
[24]     }
[24]     scotchCoeffs
[24]     {
[24]         processorWeights ( 1 1 1 1 1 1 1 1 1 1 1 1 1 1 1 1 1 1 1 1 1 1 1 1 1 1 1 1 1 1 1 1 1 1 1 1 1 1 1 1 );
[24]     }
[24] }
[24] 
[24] Selecting decompositionMethod scotch
[27]  Foam::decompositionMethod::New 
[27] {
[27]     numberOfSubdomains 40;
[27]     method          scotch;
[27]     simpleCoeffs
[27]     {
[27]         n               ( 4 1 1 );
[27]         delta           0.001;
[27]     }
[27]     hierarchicalCoeffs
[27]     {
[27]         n               ( 3 2 1 );
[27]         delta           0.001;
[27]         order           xyz;
[27]     }
[27]     manualCoeffs
[27]     {
[27]         dataFile        "cellDecomposition";
[27]     }
[27]     scotchCoeffs
[27]     {
[27]         processorWeights ( 1 1 1 1 1 1 1 1 1 1 1 1 1 1 1 1 1 1 1 1 1 1 1 1 1 1 1 1 1 1 1 1 1 1 1 1 1 1 1 1 );
[27]     }
[27] }
[27] 
[27] Selecting decompositionMethod scotch
[29]  Foam::decompositionMethod::New 
[29] {
[29]     numberOfSubdomains 40;
[29]     method          scotch;
[29]     simpleCoeffs
[29]     {
[29]         n               ( 4 1 1 );
[29]         delta           0.001;
[29]     }
[29]     hierarchicalCoeffs
[29]     {
[29]         n               ( 3 2 1 );
[29]         delta           0.001;
[29]         order           xyz;
[29]     }
[29]     manualCoeffs
[29]     {
[29]         dataFile        "cellDecomposition";
[29]     }
[29]     scotchCoeffs
[29]     {
[29]         processorWeights ( 1 1 1 1 1 1 1 1 1 1 1 1 1 1 1 1 1 1 1 1 1 1 1 1 1 1 1 1 1 1 1 1 1 1 1 1 1 1 1 1 );
[29]     }
[29] }
[29] 
[29] Selecting decompositionMethod scotch
[30]  Foam::decompositionMethod::New 
[30] {
[30]     numberOfSubdomains 40;
[30]     method          scotch;
[30]     simpleCoeffs
[30]     {
[30]         n               ( 4 1 1 );
[30]         delta           0.001;
[30]     }
[30]     hierarchicalCoeffs
[30]     {
[30]         n               ( 3 2 1 );
[30]         delta           0.001;
[30]         order           xyz;
[30]     }
[30]     manualCoeffs
[30]     {
[30]         dataFile        "cellDecomposition";
[30]     }
[30]     scotchCoeffs
[30]     {
[30]         processorWeights ( 1 1 1 1 1 1 1 1 1 1 1 1 1 1 1 1 1 1 1 1 1 1 1 1 1 1 1 1 1 1 1 1 1 1 1 1 1 1 1 1 );
[30]     }
[30] }
[30] 
[30] Selecting decompositionMethod scotch
[31]  Foam::decompositionMethod::New 
[31] {
[31]     numberOfSubdomains 40;
[31]     method          scotch;
[31]     simpleCoeffs
[31]     {
[31]         n               ( 4 1 1 );
[31]         delta           0.001;
[31]     }
[31]     hierarchicalCoeffs
[31]     {
[31]         n               ( 3 2 1 );
[31]         delta           0.001;
[31]         order           xyz;
[31]     }
[31]     manualCoeffs
[31]     {
[31]         dataFile        "cellDecomposition";
[31]     }
[31]     scotchCoeffs
[31]     {
[31]         processorWeights ( 1 1 1 1 1 1 1 1 1 1 1 1 1 1 1 1 1 1 1 1 1 1 1 1 1 1 1 1 1 1 1 1 1 1 1 1 1 1 1 1 );
[31]     }
[31] }
[31] 
[31] Selecting decompositionMethod scotch
[18]  Foam::decompositionMethod::New 
[18] {
[18]     numberOfSubdomains 40;
[18]     method          scotch;
[18]     simpleCoeffs
[18]     {
[18]         n               ( 4 1 1 );
[18]         delta           0.001;
[38]  Foam::decompositionMethod::New 
[38] {
[38]     numberOfSubdomains 40;
[38]     method          scotch;
[38]     simpleCoeffs
[38]     {
[38]         n               ( 4 1 1 );
[38]         delta           0.001;
[38]     }
[38]     hierarchicalCoeffs
[38]     {
[38]         n               ( 3 2 1 );
[38]         delta           0.001;
[38]         order           xyz;
[38]     }
[38]     manualCoeffs
[38]     {
[38]         dataFile        "cellDecomposition";
[38]     }
[38]     scotchCoeffs
[38]     {
[38]         processorWeights ( 1 1 1 1 1 1 1 1 1 1 1 1 1 1 1 1 1 1 1 1 1 1 1 1 1 1 1 1 1 1 1 1 1 1 1 1 1 1 1 1 );
[38]     }
[38] }
[38] 
[38] Selecting decompositionMethod scotch
[18]     }
[18]     hierarchicalCoeffs
[18]     {
[18]         n               ( 3 2 1 );
[18]         delta           0.001;
[18]         order           xyz;
[18]     }
[18]     manualCoeffs
[18]     {
[18]         dataFile        "cellDecomposition";
[18]     }
[18]     scotchCoeffs
[18]     {
[37]  Foam::decompositionMethod::New 
[37] {
[37]     numberOfSubdomains 40;
[37]     method          scotch;
[37]     simpleCoeffs
[37]     {
[37]         n               ( 4 1 1 );
[37]         delta           0.001;
[37]     }
[37]     hierarchicalCoeffs
[37]     {
[37]         n               ( 3 2 1 );
[37]         delta           0.001;
[37]         order           xyz;
[37]     }
[37]     manualCoeffs
[37]     {
[37]         dataFile        "cellDecomposition";
[37]     }
[37]     scotchCoeffs
[37]     {
[37]         processorWeights ( 1 1 1 1 1 1 1 1 1 1 1 1 1 1 1 1 1 1 1 1 1 1 1 1 1 1 1 1 1 1 1 1 1 1 1 1 1 1 1 1 );
[37]     }
[37] }
[37] 
[37] Selecting decompositionMethod scotch
[18]         processorWeights ( 1 1 1 1 1 1 1 1 1 1 1 1 1 1 1 1 1 1 1 1 1 1 1 1 1 1 1 1 1 1 1 1 1 1 1 1 1 1 1 1 );
[18]     }
[18] }
[18] 
[18] Selecting decompositionMethod scotch
[3]  Foam::decompositionMethod::New 
[3] {
[3]     numberOfSubdomains 40;
[3]     method          scotch;
[3]     simpleCoeffs
[3]     {
[3]         n               ( 4 1 1 );
[3]         delta           0.001;
[3]     }
[3]     hierarchicalCoeffs
[3]     {
[3]         n               ( 3 2 1 );
[3]         delta           0.001;
[3]         order           xyz;
[3]     }
[3]     manualCoeffs
[3]     {
[3]         dataFile        "cellDecomposition";
[3]     }
[3]     scotchCoeffs
[3]     {
[3]         processorWeights ( 1 1 1 1 1 1 1 1 1 1 1 1 1 1 1 1 1 1 1 1 1 1 1 1 1 1 1 1 1 1 1 1 1 1 1 1 1 1 1 1 );
[3]     }
[3] }
[3] 
[3] Selecting decompositionMethod scotch
[7]  Foam::decompositionMethod::New 
[7] {
[7]     numberOfSubdomains 40;
[7]     method          scotch;
[7]     simpleCoeffs
[7]     {
[7]         n               ( 4 1 1 );
[7]         delta           0.001;
[7]     }
[7]     hierarchicalCoeffs
[7]     {
[7]         n               ( 3 2 1 );
[7]         delta           0.001;
[7]         order           xyz;
[7]     }
[7]     manualCoeffs
[7]     {
[7]         dataFile        "cellDecomposition";
[7]     }
[7]     scotchCoeffs
[7]     {
[7]         processorWeights ( 1 1 1 1 1 1 1 1 1 1 1 1 1 1 1 1 1 1 1 1 1 1 1 1 1 1 1 1 1 1 1 1 1 1 1 1 1 1 1 1 );
[7]     }
[7] }
[7] 
[7] Selecting decompositionMethod scotch
[8]  Foam::decompositionMethod::New 
[8] {
[8]     numberOfSubdomains 40;
[8]     method          scotch;
[8]     simpleCoeffs
[8]     {
[8]         n               ( 4 1 1 );
[8]         delta           0.001;
[8]     }
[8]     hierarchicalCoeffs
[8]     {
[8]         n               ( 3 2 1 );
[8]         delta           0.001;
[8]         order           xyz;
[8]     }
[8]     manualCoeffs
[8]     {
[8]         dataFile        "cellDecomposition";
[8]     }
[8]     scotchCoeffs
[8]     {
[8]         processorWeights ( 1 1 1 1 1 1 1 1 1 1 1 1 1 1 1 1 1 1 1 1 1 1 1 1 1 1 1 1 1 1 1 1 1 1 1 1 1 1 1 1 );
[8]     }
[8] }
[8] 
[8] Selecting decompositionMethod scotch
[11]  Foam::decompositionMethod::New 
[11] {
[11]     numberOfSubdomains 40;
[11]     method          scotch;
[11]     simpleCoeffs
[11]     {
[11]         n               ( 4 1 1 );
[11]         delta           0.001;
[11]     }
[11]     hierarchicalCoeffs
[11]     {
[11]         n               ( 3 2 1 );
[11]         delta           0.001;
[11]         order           xyz;
[11]     }
[11]     manualCoeffs
[11]     {
[11]         dataFile        "cellDecomposition";
[11]     }
[11]     scotchCoeffs
[11]     {
[11]         processorWeights ( 1 1 1 1 1 1 1 1 1 1 1 1 1 1 1 1 1 1 1 1 1 1 1 1 1 1 1 1 1 1 1 1 1 1 1 1 1 1 1 1 );
[11]     }
[11] }
[11] 
[11] Selecting decompositionMethod scotch
[16]  Foam::decompositionMethod::New 
[16] {
[16]     numberOfSubdomains 40;
[16]     method          scotch;
[16]     simpleCoeffs
[16]     {
[16]         n               ( 4 1 1 );
[16]         delta           0.001;
[16]     }
[16]     hierarchicalCoeffs
[16]     {
[16]         n               ( 3 2 1 );
[16]         delta           0.001;
[16]         order           xyz;
[16]     }
[16]     manualCoeffs
[16]     {
[16]         dataFile        "cellDecomposition";
[16]     }
[16]     scotchCoeffs
[16]     {
[16]         processorWeights ( 1 1 1 1 1 1 1 1 1 1 1 1 1 1 1 1 1 1 1 1 1 1 1 1 1 1 1 1 1 1 1 1 1 1 1 1 1 1 1 1 );
[16]     }
[16] }
[16] 
[16] Selecting decompositionMethod scotch
[19]  Foam::decompositionMethod::New 
[19] {
[19]     numberOfSubdomains 40;
[19]     method          scotch;
[19]     simpleCoeffs
[19]     {
[19]         n               ( 4 1 1 );
[19]         delta           0.001;
[19]     }
[19]     hierarchicalCoeffs
[19]     {
[19]         n               ( 3 2 1 );
[19]         delta           0.001;
[19]         order           xyz;
[19]     }
[19]     manualCoeffs
[19]     {
[19]         dataFile        "cellDecomposition";
[19]     }
[19]     scotchCoeffs
[19]     {
[19]         processorWeights ( 1 1 1 1 1 1 1 1 1 1 1 1 1 1 1 1 1 1 1 1 1 1 1 1 1 1 1 1 1 1 1 1 1 1 1 1 1 1 1 1 );
[19]     }
[19] }
[19] 
[19] Selecting decompositionMethod scotch
[20]  Foam::decompositionMethod::New 
[20] {
[20]     numberOfSubdomains 40;
[20]     method          scotch;
[20]     simpleCoeffs
[20]     {
[20]         n               ( 4 1 1 );
[20]         delta           0.001;
[20]     }
[20]     hierarchicalCoeffs
[20]     {
[20]         n               ( 3 2 1 );
[20]         delta           0.001;
[20]         order           xyz;
[20]     }
[20]     manualCoeffs
[20]     {
[20]         dataFile        "cellDecomposition";
[20]     }
[20]     scotchCoeffs
[20]     {
[20]         processorWeights ( 1 1 1 1 1 1 1 1 1 1 1 1 1 1 1 1 1 1 1 1 1 1 1 1 1 1 1 1 1 1 1 1 1 1 1 1 1 1 1 1 );
[20]     }
[20] }
[20] 
[20] Selecting decompositionMethod scotch
[22]  Foam::decompositionMethod::New 
[22] {
[22]     numberOfSubdomains 40;
[22]     method          scotch;
[22]     simpleCoeffs
[22]     {
[22]         n               ( 4 1 1 );
[22]         delta           0.001;
[22]     }
[22]     hierarchicalCoeffs
[22]     {
[22]         n               ( 3 2 1 );
[22]         delta           0.001;
[22]         order           xyz;
[22]     }
[22]     manualCoeffs
[22]     {
[22]         dataFile        "cellDecomposition";
[22]     }
[22]     scotchCoeffs
[22]     {
[22]         processorWeights ( 1 1 1 1 1 1 1 1 1 1 1 1 1 1 1 1 1 1 1 1 1 1 1 1 1 1 1 1 1 1 1 1 1 1 1 1 1 1 1 1 );
[22]     }
[22] }
[22] 
[22] Selecting decompositionMethod scotch
[23]  Foam::decompositionMethod::New 
[23] {
[23]     numberOfSubdomains 40;
[23]     method          scotch;
[23]     simpleCoeffs
[23]     {
[23]         n               ( 4 1 1 );
[23]         delta           0.001;
[23]     }
[23]     hierarchicalCoeffs
[23]     {
[23]         n               ( 3 2 1 );
[23]         delta           0.001;
[23]         order           xyz;
[23]     }
[23]     manualCoeffs
[23]     {
[23]         dataFile        "cellDecomposition";
[23]     }
[23]     scotchCoeffs
[23]     {
[23]         processorWeights ( 1 1 1 1 1 1 1 1 1 1 1 1 1 1 1 1 1 1 1 1 1 1 1 1 1 1 1 1 1 1 1 1 1 1 1 1 1 1 1 1 );
[23]     }
[23] }
[23] 
[23] Selecting decompositionMethod scotch
[28]  Foam::decompositionMethod::New 
[28] {
[28]     numberOfSubdomains 40;
[28]     method          scotch;
[28]     simpleCoeffs
[28]     {
[28]         n               ( 4 1 1 );
[28]         delta           0.001;
[28]     }
[28]     hierarchicalCoeffs
[28]     {
[28]         n               ( 3 2 1 );
[28]         delta           0.001;
[28]         order           xyz;
[28]     }
[28]     manualCoeffs
[28]     {
[28]         dataFile        "cellDecomposition";
[28]     }
[28]     scotchCoeffs
[28]     {
[28]         processorWeights ( 1 1 1 1 1 1 1 1 1 1 1 1 1 1 1 1 1 1 1 1 1 1 1 1 1 1 1 1 1 1 1 1 1 1 1 1 1 1 1 1 );
[28]     }
[28] }
[28] 
[28] Selecting decompositionMethod scotch
[34]  Foam::decompositionMethod::New 
[34] {
[34]     numberOfSubdomains 40;
[34]     method          scotch;
[34]     simpleCoeffs
[34]     {
[34]         n               ( 4 1 1 );
[34]         delta           0.001;
[34]     }
[34]     hierarchicalCoeffs
[34]     {
[34]         n               ( 3 2 1 );
[34]         delta           0.001;
[34]         order           xyz;
[34]     }
[34]     manualCoeffs
[34]     {
[34]         dataFile        "cellDecomposition";
[34]     }
[34]     scotchCoeffs
[34]     {
[34]         processorWeights ( 1 1 1 1 1 1 1 1 1 1 1 1 1 1 1 1 1 1 1 1 1 1 1 1 1 1 1 1 1 1 1 1 1 1 1 1 1 1 1 1 );
[34]     }
[34] }
[34] 
[34] Selecting decompositionMethod scotch
[36]  Foam::decompositionMethod::New 
[36] {
[36]     numberOfSubdomains 40;
[36]     method          scotch;
[36]     simpleCoeffs
[36]     {
[36]         n               ( 4 1 1 );
[36]         delta           0.001;
[36]     }
[36]     hierarchicalCoeffs
[36]     {
[36]         n               ( 3 2 1 );
[36]         delta           0.001;
[36]         order           xyz;
[36]     }
[36]     manualCoeffs
[36]     {
[36]         dataFile        "cellDecomposition";
[36]     }
[36]     scotchCoeffs
[36]     {
[36]         processorWeights ( 1 1 1 1 1 1 1 1 1 1 1 1 1 1 1 1 1 1 1 1 1 1 1 1 1 1 1 1 1 1 1 1 1 1 1 1 1 1 1 1 );
[36]     }
[36] }
[36] 
[36] Selecting decompositionMethod scotch
[5]  Foam::decompositionMethod::New 
[5] {
[5]     numberOfSubdomains 40;
[5]     method          scotch;
[5]     simpleCoeffs
[5]     {
[5]         n               ( 4 1 1 );
[5]         delta           0.001;
[5]     }
[5]     hierarchicalCoeffs
[5]     {
[5]         n               ( 3 2 1 );
[5]         delta           0.001;
[5]         order           xyz;
[5]     }
[5]     manualCoeffs
[5]     {
[5]         dataFile        "cellDecomposition";
[5]     }
[5]     scotchCoeffs
[5]     {
[5]         processorWeights ( 1 1 1 1 1 1 1 1 1 1 1 1 1 1 1 1 1 1 1 1 1 1 1 1 1 1 1 1 1 1 1 1 1 1 1 1 1 1 1 1 );
[5]     }
[5] }
[5] 
[5] Selecting decompositionMethod scotch
[12]  Foam::decompositionMethod::New 
[12] {
[12]     numberOfSubdomains 40;
[12]     method          scotch;
[12]     simpleCoeffs
[12]     {
[12]         n               ( 4 1 1 );
[12]         delta           0.001;
[12]     }
[12]     hierarchicalCoeffs
[12]     {
[12]         n               ( 3 2 1 );
[12]         delta           0.001;
[12]         order           xyz;
[12]     }
[12]     manualCoeffs
[12]     {
[12]         dataFile        "cellDecomposition";
[12]     }
[12]     scotchCoeffs
[12]     {
[12]         processorWeights ( 1 1 1 1 1 1 1 1 1 1 1 1 1 1 1 1 1 1 1 1 1 1 1 1 1 1 1 1 1 1 1 1 1 1 1 1 1 1 1 1 );
[12]     }
[12] }
[12] 
[12] Selecting decompositionMethod scotch
[15]  Foam::decompositionMethod::New 
[15] {
[15]     numberOfSubdomains 40;
[15]     method          scotch;
[15]     simpleCoeffs
[15]     {
[15]         n               ( 4 1 1 );
[15]         delta           0.001;
[15]     }
[15]     hierarchicalCoeffs
[15]     {
[15]         n               ( 3 2 1 );
[15]         delta           0.001;
[15]         order           xyz;
[15]     }
[15]     manualCoeffs
[15]     {
[15]         dataFile        "cellDecomposition";
[15]     }
[15]     scotchCoeffs
[15]     {
[15]         processorWeights ( 1 1 1 1 1 1 1 1 1 1 1 1 1 1 1 1 1 1 1 1 1 1 1 1 1 1 1 1 1 1 1 1 1 1 1 1 1 1 1 1 );
[15]     }
[15] }
[15] 
[6]  Foam::decompositionMethod::New 
[6] {
[6]     numberOfSubdomains 40;
[6]     method          scotch;
[6]     simpleCoeffs
[6]     {
[15] Selecting decompositionMethod scotch
[6]         n               ( 4 1 1 );
[6]         delta           0.001;
[6]     }
[6]     hierarchicalCoeffs
[6]     {
[6]         n               ( 3 2 1 );
[6]         delta           0.001;
[6]         order           xyz;
[6]     }
[6]     manualCoeffs
[6]     {
[32]  Foam::decompositionMethod::New 
[32] {
[32]     numberOfSubdomains 40;
[32]     method          scotch;
[32]     simpleCoeffs
[32]     {
[32]         n               ( 4 1 1 );
[32]         delta           0.001;
[32]     }
[32]     hierarchicalCoeffs
[32]     {
[32]         n               ( 3 2 1 );
[32]         delta           0.001;
[32]         order           xyz;
[32]     }
[32]     manualCoeffs
[32]     {
[32]         dataFile        "cellDecomposition";
[32]     }
[32]     scotchCoeffs
[32]     {
[32]         processorWeights ( 1 1 1 1 1 1 1 1 1 1 1 1 1 1 1 1 1 1 1 1 1 1 1 1 1 1 1 1 1 1 1 1 1 1 1 1 1 1 1 1 );
[32]     }
[32] }
[32] 
[32] Selecting decompositionMethod scotch
[6]         dataFile        "cellDecomposition";
[6]     }
[6]     scotchCoeffs
[6]     {
[6]         processorWeights ( 1 1 1 1 1 1 1 1 1 1 1 1 1 1 1 1 1 1 1 1 1 1 1 1 1 1 1 1 1 1 1 1 1 1 1 1 1 1 1 1 );
[6]     }
[6] }
[6] 
[6] Selecting decompositionMethod scotch
11    wall                bottomSlip                    

Added patches in = 0.19 s

[0]  Foam::decompositionMethod::New 
[0] {
[0]     numberOfSubdomains 40;
[0]     method          scotch;
[0]     simpleCoeffs
[0]     {
[0]         n               ( 4 1 1 );
[0]         delta           0.001;
[0]     }
[0]     hierarchicalCoeffs
[0]     {
[0]         n               ( 3 2 1 );
[0]         delta           0.001;
[0]         order           xyz;
[0]     }
[0]     manualCoeffs
[0]     {
[0]         dataFile        "cellDecomposition";
[0]     }
[0]     scotchCoeffs
[0]     {
[0]         processorWeights ( 1 1 1 1 1 1 1 1 1 1 1 1 1 1 1 1 1 1 1 1 1 1 1 1 1 1 1 1 1 1 1 1 1 1 1 1 1 1 1 1 );
[0]     }
[0] }
[0] 
[0] Selecting decompositionMethod scotch
Layer thickness specified as final layer and expansion ratio.

Refinement phase
----------------

[21]  Foam::decompositionMethod::New 
[21] {
[21]     numberOfSubdomains 40;
[21]     method          scotch;
[21]     simpleCoeffs
[21]     {
[21]         n               ( 4 1 1 );
[21]         delta           0.001;
[21]     }
[21]     hierarchicalCoeffs
[21]     {
[21]         n               ( 3 2 1 );
[21]         delta           0.001;
[21]         order           xyz;
[21]     }
[21]     manualCoeffs
[21]     {
[21]         dataFile        "cellDecomposition";
[21]     }
[21]     scotchCoeffs
[21]     {
[21]         processorWeights ( 1 1 1 1 1 1 1 1 1 1 1 1 1 1 1 1 1 1 1 1 1 1 1 1 1 1 1 1 1 1 1 1 1 1 1 1 1 1 1 1 );
[21]     }
[21] }
[21] 
[21] Selecting decompositionMethod scotch
[33]  Foam::decompositionMethod::New 
[33] {
[33]     numberOfSubdomains 40;
[33]     method          scotch;
[33]     simpleCoeffs
[33]     {
[33]         n               ( 4 1 1 );
[33]         delta           0.001;
[33]     }
[33]     hierarchicalCoeffs
[33]     {
[33]         n               ( 3 2 1 );
[33]         delta           0.001;
[33]         order           xyz;
[33]     }
[33]     manualCoeffs
[33]     {
[33]         dataFile        "cellDecomposition";
[33]     }
[33]     scotchCoeffs
[33]     {
[33]         processorWeights ( 1 1 1 1 1 1 1 1 1 1 1 1 1 1 1 1 1 1 1 1 1 1 1 1 1 1 1 1 1 1 1 1 1 1 1 1 1 1 1 1 );
[33]     }
[33] }
[33] 
[33] Selecting decompositionMethod scotch
[35]  Foam::decompositionMethod::New 
[35] {
[35]     numberOfSubdomains 40;
[35]     method          scotch;
[35]     simpleCoeffs
[35]     {
[35]         n               ( 4 1 1 );
[35]         delta           0.001;
[35]     }
[35]     hierarchicalCoeffs
[35]     {
[35]         n               ( 3 2 1 );
[35]         delta           0.001;
[35]         order           xyz;
[35]     }
[35]     manualCoeffs
[35]     {
[35]         dataFile        "cellDecomposition";
[35]     }
[35]     scotchCoeffs
[35]     {
[35]         processorWeights ( 1 1 1 1 1 1 1 1 1 1 1 1 1 1 1 1 1 1 1 1 1 1 1 1 1 1 1 1 1 1 1 1 1 1 1 1 1 1 1 1 );
[35]     }
[35] }
[35] 
[35] Selecting decompositionMethod scotch
[39]  Foam::decompositionMethod::New 
[39] {
[39]     numberOfSubdomains 40;
[39]     method          scotch;
[39]     simpleCoeffs
[39]     {
[39]         n               ( 4 1 1 );
[39]         delta           0.001;
[39]     }
[39]     hierarchicalCoeffs
[39]     {
[39]         n               ( 3 2 1 );
[39]         delta           0.001;
[39]         order           xyz;
[39]     }
[39]     manualCoeffs
[39]     {
[39]         dataFile        "cellDecomposition";
[39]     }
[39]     scotchCoeffs
[39]     {
[39]         processorWeights ( 1 1 1 1 1 1 1 1 1 1 1 1 1 1 1 1 1 1 1 1 1 1 1 1 1 1 1 1 1 1 1 1 1 1 1 1 1 1 1 1 );
[39]     }
[39] }
[39] 
[39] Selecting decompositionMethod scotch
[4]  Foam::decompositionMethod::New 
[4] {
[4]     numberOfSubdomains 40;
[4]     method          scotch;
[4]     simpleCoeffs
[4]     {
[4]         n               ( 4 1 1 );
[4]         delta           0.001;
[4]     }
[4]     hierarchicalCoeffs
[4]     {
[4]         n               ( 3 2 1 );
[4]         delta           0.001;
[4]         order           xyz;
[4]     }
[4]     manualCoeffs
[4]     {
[4]         dataFile        "cellDecomposition";
[4]     }
[4]     scotchCoeffs
[4]     {
[4]         processorWeights ( 1 1 1 1 1 1 1 1 1 1 1 1 1 1 1 1 1 1 1 1 1 1 1 1 1 1 1 1 1 1 1 1 1 1 1 1 1 1 1 1 );
[4]     }
[4] }
[4] 
[4] Selecting decompositionMethod scotch
[2]  Foam::decompositionMethod::New 
[2] {
[2]     numberOfSubdomains 40;
[2]     method          scotch;
[2]     simpleCoeffs
[2]     {
[2]         n               ( 4 1 1 );
[2]         delta           0.001;
[2]     }
[2]     hierarchicalCoeffs
[2]     {
[2]         n               ( 3 2 1 );
[2]         delta           0.001;
[2]         order           xyz;
[2]     }
[2]     manualCoeffs
[2]     {
[2]         dataFile        "cellDecomposition";
[2]     }
[2]     scotchCoeffs
[2]     {
[2]         processorWeights ( 1 1 1 1 1 1 1 1 1 1 1 1 1 1 1 1 1 1 1 1 1 1 1 1 1 1 1 1 1 1 1 1 1 1 1 1 1 1 1 1 );
[2]     }
[2] }
[2] 
[2] Selecting decompositionMethod scotch
Found point (80.0001 0.0001 15.43) in cell 18322 on processor 33

Feature refinement iteration 0
------------------------------

Marked for refinement due to explicit features             : 102 cells.
Determined cells to refine in = 0.21 s
Selected for feature refinement : 102 cells (out of 851400)
Edge intersection testing:
    Number of edges             : 2589924
    Number of edges to retest   : 4619
    Number of intersected edges : 66664
Refined mesh in = 0.29 s
After refinement feature refinement iteration 0 : cells:852114  faces:2589924  points:886172
Cells per refinement level:
    0	851298
    1	816
Skipping balancing since max unbalance 0.036053 is less than allowable 0.1

Feature refinement iteration 1
------------------------------

Marked for refinement due to explicit features             : 194 cells.
Determined cells to refine in = 0.27 s
Selected for feature refinement : 374 cells (out of 852114)
Edge intersection testing:
    Number of edges             : 2599446
    Number of edges to retest   : 14364
    Number of intersected edges : 68414
Refined mesh in = 0.25 s
After refinement feature refinement iteration 1 : cells:854732  faces:2599446  points:890642
Cells per refinement level:
    0	851118
    1	2062
    2	1552
Balanced mesh in = 4.81 s
After balancing feature refinement iteration 1 : cells:854732  faces:2599446  points:890642
Cells per refinement level:
    0	851118
    1	2062
    2	1552

Feature refinement iteration 2
------------------------------

Marked for refinement due to explicit features             : 380 cells.
Determined cells to refine in = 0.54 s
Selected for feature refinement : 834 cells (out of 854732)
Edge intersection testing:
    Number of edges             : 2620308
    Number of edges to retest   : 31571
    Number of intersected edges : 71428
Refined mesh in = 0.26 s
After refinement feature refinement iteration 2 : cells:860570  faces:2620308  points:900198
Cells per refinement level:
    0	851026
    1	2436
    2	4068
    3	3040
Balanced mesh in = 4.92 s
After balancing feature refinement iteration 2 : cells:860570  faces:2620308  points:900198
Cells per refinement level:
    0	851026
    1	2436
    2	4068
    3	3040

Feature refinement iteration 3
------------------------------

Marked for refinement due to explicit features             : 780 cells.
Determined cells to refine in = 0.36 s
Selected for feature refinement : 2046 cells (out of 860570)
Edge intersection testing:
    Number of edges             : 2671491
    Number of edges to retest   : 76122
    Number of intersected edges : 77582
Refined mesh in = 0.3 s
After refinement feature refinement iteration 3 : cells:874892  faces:2671491  points:923502
Cells per refinement level:
    0	850900
    1	3062
    2	6366
    3	8324
    4	6240
Balanced mesh in = 5.09 s
After balancing feature refinement iteration 3 : cells:874892  faces:2671491  points:923502
Cells per refinement level:
    0	850900
    1	3062
    2	6366
    3	8324
    4	6240

Feature refinement iteration 4
------------------------------

Marked for refinement due to explicit features             : 1556 cells.
Determined cells to refine in = 0.31 s
Selected for feature refinement : 3958 cells (out of 874892)
Edge intersection testing:
    Number of edges             : 2770089
    Number of edges to retest   : 149282
    Number of intersected edges : 91212
Refined mesh in = 0.51 s
After refinement feature refinement iteration 4 : cells:902598  faces:2770089  points:968204
Cells per refinement level:
    0	850882
    1	3032
    2	7038
    3	12594
    4	16604
    5	12448
Balanced mesh in = 5.38 s
After balancing feature refinement iteration 4 : cells:902598  faces:2770089  points:968204
Cells per refinement level:
    0	850882
    1	3032
    2	7038
    3	12594
    4	16604
    5	12448

Feature refinement iteration 5
------------------------------

Marked for refinement due to explicit features             : 3175 cells.
Determined cells to refine in = 0.64 s
Selected for feature refinement : 8116 cells (out of 902598)
Edge intersection testing:
    Number of edges             : 2971839
    Number of edges to retest   : 307715
    Number of intersected edges : 104410
Refined mesh in = 0.49 s
After refinement feature refinement iteration 5 : cells:959410  faces:2971839  points:1059453
Cells per refinement level:
    0	850879
    1	3047
    2	6745
    3	14041
    4	25297
    5	34001
    6	25400
Balanced mesh in = 5.19 s
After balancing feature refinement iteration 5 : cells:959410  faces:2971839  points:1059453
Cells per refinement level:
    0	850879
    1	3047
    2	6745
    3	14041
    4	25297
    5	34001
    6	25400

Feature refinement iteration 6
------------------------------

Marked for refinement due to explicit features             : 6347 cells.
Determined cells to refine in = 0.4 s
Selected for feature refinement : 16317 cells (out of 959410)
Edge intersection testing:
    Number of edges             : 3376815
    Number of edges to retest   : 623961
    Number of intersected edges : 148216
Refined mesh in = 0.55 s
After refinement feature refinement iteration 6 : cells:1073629  faces:3376815  points:1242217
Cells per refinement level:
    0	850849
    1	3229
    2	7087
    3	14306
    4	28087
    5	51034
    6	68261
    7	50776
Balanced mesh in = 5.64 s
After balancing feature refinement iteration 6 : cells:1073629  faces:3376815  points:1242217
Cells per refinement level:
    0	850849
    1	3229
    2	7087
    3	14306
    4	28087
    5	51034
    6	68261
    7	50776

Feature refinement iteration 7
------------------------------

Marked for refinement due to explicit features             : 0 cells.
Determined cells to refine in = 0.45 s
Selected for feature refinement : 0 cells (out of 1073629)
Stopping refining since too few cells selected.


Surface refinement iteration 0
------------------------------

Marked for refinement due to surface intersection          : 34521 cells.
Marked for refinement due to curvature/regions             : 8980 cells.
Determined cells to refine in = 0.04 s
Selected for refinement : 47531 cells (out of 1073629)
Edge intersection testing:
    Number of edges             : 4456059
    Number of edges to retest   : 1597776
    Number of intersected edges : 229207
Refined mesh in = 0.79 s
After refinement surface refinement iteration 0 : cells:1406346  faces:4456059  points:1655851
Cells per refinement level:
    0	850342
    1	6238
    2	13012
    3	27791
    4	68169
    5	102729
    6	215449
    7	122616
Balanced mesh in = 6.44 s
After balancing surface refinement iteration 0 : cells:1406346  faces:4456059  points:1655851
Cells per refinement level:
    0	850342
    1	6238
    2	13012
    3	27791
    4	68169
    5	102729
    6	215449
    7	122616

Surface refinement iteration 1
------------------------------

Marked for refinement due to surface intersection          : 58728 cells.
Marked for refinement due to curvature/regions             : 317 cells.
Determined cells to refine in = 0.09 s
Selected for refinement : 64524 cells (out of 1406346)
Edge intersection testing:
    Number of edges             : 5902545
    Number of edges to retest   : 2124166
    Number of intersected edges : 319083
Refined mesh in = 0.7 s
After refinement surface refinement iteration 1 : cells:1858014  faces:5902545  points:2198813
Cells per refinement level:
    0	850282
    1	4474
    2	26726
    3	52834
    4	115595
    5	265083
    6	417868
    7	125152
Balanced mesh in = 7.67 s
After balancing surface refinement iteration 1 : cells:1858014  faces:5902545  points:2198813
Cells per refinement level:
    0	850282
    1	4474
    2	26726
    3	52834
    4	115595
    5	265083
    6	417868
    7	125152

Surface refinement iteration 2
------------------------------

Marked for refinement due to surface intersection          : 133404 cells.
Marked for refinement due to curvature/regions             : 53 cells.
Determined cells to refine in = 0.24 s
Selected for refinement : 146248 cells (out of 1858014)
Edge intersection testing:
    Number of edges             : 9174837
    Number of edges to retest   : 4400744
    Number of intersected edges : 522225
Refined mesh in = 1.13 s
After refinement surface refinement iteration 2 : cells:2881750  faces:9174837  points:3423244
Cells per refinement level:
    0	850120
    1	4922
    2	24922
    3	105200
    4	210856
    5	463811
    6	1096343
    7	125576
Balanced mesh in = 10.89 s
After balancing surface refinement iteration 2 : cells:2881750  faces:9174837  points:3423244
Cells per refinement level:
    0	850120
    1	4922
    2	24922
    3	105200
    4	210856
    5	463811
    6	1096343
    7	125576

Surface refinement iteration 3
------------------------------

Marked for refinement due to surface intersection          : 194286 cells.
Marked for refinement due to curvature/regions             : 104 cells.
Determined cells to refine in = 0.16 s
Selected for refinement : 213228 cells (out of 2881750)
Edge intersection testing:
    Number of edges             : 13945731
    Number of edges to retest   : 6245760
    Number of intersected edges : 818312
Refined mesh in = 1.78 s
After refinement surface refinement iteration 3 : cells:4374346  faces:13945731  points:5208256
Cells per refinement level:
    0	850116
    1	4924
    2	21808
    3	98780
    4	411572
    5	875027
    6	1985711
    7	126408
Balanced mesh in = 16.36 s
After balancing surface refinement iteration 3 : cells:4374346  faces:13945731  points:5208256
Cells per refinement level:
    0	850116
    1	4924
    2	21808
    3	98780
    4	411572
    5	875027
    6	1985711
    7	126408

Surface refinement iteration 4
------------------------------

Marked for refinement due to surface intersection          : 332292 cells.
Marked for refinement due to curvature/regions             : 3 cells.
Determined cells to refine in = 0.2 s
Selected for refinement : 364833 cells (out of 4374346)
Edge intersection testing:
    Number of edges             : 22108764
    Number of edges to retest   : 10443923
    Number of intersected edges : 1325885
Refined mesh in = 4.28 s
After refinement surface refinement iteration 4 : cells:6928177  faces:22108764  points:8262218
Cells per refinement level:
    0	850110
    1	4940
    2	21946
    3	87990
    4	372630
    5	1717413
    6	3746716
    7	126432
Balanced mesh in = 26.59 s
After balancing surface refinement iteration 4 : cells:6928177  faces:22108764  points:8262218
Cells per refinement level:
    0	850110
    1	4940
    2	21946
    3	87990
    4	372630
    5	1717413
    6	3746716
    7	126432

Surface refinement iteration 5
------------------------------

Marked for refinement due to surface intersection          : 448530 cells.
Marked for refinement due to curvature/regions             : 2 cells.
Determined cells to refine in = 0.3 s
Selected for refinement : 495250 cells (out of 6928177)
Edge intersection testing:
    Number of edges             : 33195645
    Number of edges to retest   : 14031476
    Number of intersected edges : 2024894
Refined mesh in = 7.09 s
After refinement surface refinement iteration 5 : cells:10394927  faces:33195645  points:12412828
Cells per refinement level:
    0	850106
    1	4958
    2	21958
    3	88280
    4	330186
    5	1641509
    6	7331482
    7	126448
Balanced mesh in = 40.32 s
After balancing surface refinement iteration 5 : cells:10394927  faces:33195645  points:12412828
Cells per refinement level:
    0	850106
    1	4958
    2	21958
    3	88280
    4	330186
    5	1641509
    6	7331482
    7	126448

Surface refinement iteration 6
------------------------------

Marked for refinement due to surface intersection          : 1754 cells.
Marked for refinement due to curvature/regions             : 0 cells.
Determined cells to refine in = 0.47 s
Selected for refinement : 1947 cells (out of 10394927)
Skipping balancing since max unbalance 0.0194037 is less than allowable 0.1
After balancing surface refinement iteration 6 : cells:10394927  faces:33195645  points:12412828
Cells per refinement level:
    0	850106
    1	4958
    2	21958
    3	88280
    4	330186
    5	1641509
    6	7331482
    7	126448
Edge intersection testing:
    Number of edges             : 33239988
    Number of edges to retest   : 87589
    Number of intersected edges : 2029184
Refined mesh in = 1.94 s
After refinement surface refinement iteration 6 : cells:10408556  faces:33239988  points:12429691
Cells per refinement level:
    0	850106
    1	4958
    2	21958
    3	88252
    4	330239
    5	1641129
    6	7345466
    7	126448

Surface refinement iteration 7
------------------------------

Marked for refinement due to surface intersection          : 58 cells.
Marked for refinement due to curvature/regions             : 0 cells.
Determined cells to refine in = 0.46 s
Selected for refinement : 62 cells (out of 10408556)
Skipping balancing since max unbalance 0.0200336 is less than allowable 0.1
After balancing surface refinement iteration 7 : cells:10408556  faces:33239988  points:12429691
Cells per refinement level:
    0	850106
    1	4958
    2	21958
    3	88252
    4	330239
    5	1641129
    6	7345466
    7	126448
Edge intersection testing:
    Number of edges             : 33241290
    Number of edges to retest   : 6354
    Number of intersected edges : 2029184
Refined mesh in = 1.87 s
After refinement surface refinement iteration 7 : cells:10408990  faces:33241290  points:12430125
Cells per refinement level:
    0	850106
    1	4958
    2	21958
    3	88252
    4	330235
    5	1641103
    6	7345930
    7	126448

Surface refinement iteration 8
------------------------------

Marked for refinement due to surface intersection          : 0 cells.
Marked for refinement due to curvature/regions             : 0 cells.
Determined cells to refine in = 0.49 s
Selected for refinement : 0 cells (out of 10408990)
Stopping refining since too few cells selected.


Removing mesh beyond surface intersections
------------------------------------------

Found point (80.0001 0.0001 15.43) in global region 0 out of 2 regions.
Keeping all cells in region 0 containing point (80.0001 0.0001 15.43)
Selected for keeping : 7014378 cells.
Edge intersection testing:
    Number of edges             : 23085543
    Number of edges to retest   : 1899150
    Number of intersected edges : 2029184

Shell refinement iteration 0
----------------------------

Marked for refinement due to distance to explicit features : 0 cells.
Marked for refinement due to refinement shells             : 482549 cells.
Determined cells to refine in = 10.08 s
Selected for internal refinement : 1047866 cells (out of 7014378)
Balanced mesh in = 21.18 s
After balancing shell refinement iteration 0 : cells:7014378  faces:23085543  points:9061918
Cells per refinement level:
    0	850000
    1	3796
    2	15428
    3	40354
    4	213480
    5	844026
    6	4923003
    7	124291
Edge intersection testing:
    Number of edges             : 45262620
    Number of edges to retest   : 34121644
    Number of intersected edges : 2137985
Refined mesh in = 4.02 s
After refinement shell refinement iteration 0 : cells:14349440  faces:45262620  points:16569130
Cells per refinement level:
    0	777644
    1	578848
    2	30368
    3	130630
    4	352886
    5	1126816
    6	10636549
    7	715699

Shell refinement iteration 1
----------------------------

Marked for refinement due to distance to explicit features : 0 cells.
Marked for refinement due to refinement shells             : 115286 cells.
Determined cells to refine in = 0.65 s
Selected for internal refinement : 272894 cells (out of 14349440)
Balanced mesh in = 43.38 s
After balancing shell refinement iteration 1 : cells:14349440  faces:45262620  points:16569140
Cells per refinement level:
    0	777644
    1	578848
    2	30368
    3	130630
    4	352886
    5	1126816
    6	10636549
    7	715699
Edge intersection testing:
    Number of edges             : 51117390
    Number of edges to retest   : 9947098
    Number of intersected edges : 2234278
Refined mesh in = 4.18 s
After refinement shell refinement iteration 1 : cells:16259698  faces:51117390  points:18603922
Cells per refinement level:
    0	764664
    1	598224
    2	675712
    3	363669
    4	341109
    5	1833879
    6	10782046
    7	900395

Shell refinement iteration 2
----------------------------

Marked for refinement due to distance to explicit features : 0 cells.
Marked for refinement due to refinement shells             : 237276 cells.
Determined cells to refine in = 0.79 s
Selected for internal refinement : 267376 cells (out of 16259698)
Balanced mesh in = 43.76 s
After balancing shell refinement iteration 2 : cells:16259698  faces:51117390  points:18603930
Cells per refinement level:
    0	764664
    1	598224
    2	675712
    3	363669
    4	341109
    5	1833879
    6	10782046
    7	900395
Edge intersection testing:
    Number of edges             : 56769591
    Number of edges to retest   : 7161461
    Number of intersected edges : 2252224
Refined mesh in = 4.96 s
After refinement shell refinement iteration 2 : cells:18131330  faces:56769591  points:20512995
Cells per refinement level:
    0	764664
    1	588408
    2	516964
    3	2245648
    4	467121
    5	1864320
    6	10782882
    7	901323

Shell refinement iteration 3
----------------------------

Marked for refinement due to distance to explicit features : 0 cells.
Marked for refinement due to refinement shells             : 1748 cells.
Determined cells to refine in = 0.87 s
Selected for internal refinement : 3642 cells (out of 18131330)
Skipping balancing since max unbalance 0.0487543 is less than allowable 0.1
After balancing shell refinement iteration 3 : cells:18131330  faces:56769591  points:20512995
Cells per refinement level:
    0	764664
    1	588408
    2	516964
    3	2245648
    4	467121
    5	1864320
    6	10782882
    7	901323
Edge intersection testing:
    Number of edges             : 56847618
    Number of edges to retest   : 187648
    Number of intersected edges : 2252482
Refined mesh in = 3.44 s
After refinement shell refinement iteration 3 : cells:18156824  faces:56847618  points:20540039
Cells per refinement level:
    0	764664
    1	588367
    2	515544
    3	2257992
    4	480205
    5	1864582
    6	10782939
    7	902531

Shell refinement iteration 4
----------------------------

Marked for refinement due to distance to explicit features : 0 cells.
Marked for refinement due to refinement shells             : 0 cells.
Determined cells to refine in = 0.87 s
Selected for internal refinement : 243 cells (out of 18156824)
Skipping balancing since max unbalance 0.0488434 is less than allowable 0.1
After balancing shell refinement iteration 4 : cells:18156824  faces:56847618  points:20540039
Cells per refinement level:
    0	764664
    1	588367
    2	515544
    3	2257992
    4	480205
    5	1864582
    6	10782939
    7	902531
Edge intersection testing:
    Number of edges             : 56853018
    Number of edges to retest   : 13325
    Number of intersected edges : 2252635
Refined mesh in = 3.34 s
After refinement shell refinement iteration 4 : cells:18158525  faces:56853018  points:20542041
Cells per refinement level:
    0	764664
    1	588367
    2	515544
    3	2257982
    4	480277
    5	1864611
    6	10783029
    7	904051

Shell refinement iteration 5
----------------------------

Marked for refinement due to distance to explicit features : 0 cells.
Marked for refinement due to refinement shells             : 0 cells.
Determined cells to refine in = 0.87 s
Selected for internal refinement : 250 cells (out of 18158525)
Skipping balancing since max unbalance 0.0489351 is less than allowable 0.1
After balancing shell refinement iteration 5 : cells:18158525  faces:56853018  points:20542041
Cells per refinement level:
    0	764664
    1	588367
    2	515544
    3	2257982
    4	480277
    5	1864611
    6	10783029
    7	904051
Edge intersection testing:
    Number of edges             : 56858547
    Number of edges to retest   : 13732
    Number of intersected edges : 2252785
Refined mesh in = 3.41 s
After refinement shell refinement iteration 5 : cells:18160275  faces:56858547  points:20544071
Cells per refinement level:
    0	764664
    1	588367
    2	515544
    3	2257974
    4	480331
    5	1864659
    6	10783085
    7	905651

Shell refinement iteration 6
----------------------------

Marked for refinement due to distance to explicit features : 0 cells.
Marked for refinement due to refinement shells             : 0 cells.
Determined cells to refine in = 0.85 s
Selected for internal refinement : 236 cells (out of 18160275)
Skipping balancing since max unbalance 0.0490216 is less than allowable 0.1
After balancing shell refinement iteration 6 : cells:18160275  faces:56858547  points:20544071
Cells per refinement level:
    0	764664
    1	588367
    2	515544
    3	2257974
    4	480331
    5	1864659
    6	10783085
    7	905651
Edge intersection testing:
    Number of edges             : 56863773
    Number of edges to retest   : 13076
    Number of intersected edges : 2252923
Refined mesh in = 3.31 s
After refinement shell refinement iteration 6 : cells:18161927  faces:56863773  points:20545994
Cells per refinement level:
    0	764664
    1	588367
    2	515544
    3	2257966
    4	480386
    5	1864697
    6	10783172
    7	907131

Shell refinement iteration 7
----------------------------

Marked for refinement due to distance to explicit features : 0 cells.
Marked for refinement due to refinement shells             : 0 cells.
Determined cells to refine in = 0.86 s
Selected for internal refinement : 243 cells (out of 18161927)
Skipping balancing since max unbalance 0.0491107 is less than allowable 0.1
After balancing shell refinement iteration 7 : cells:18161927  faces:56863773  points:20545994
Cells per refinement level:
    0	764664
    1	588367
    2	515544
    3	2257966
    4	480386
    5	1864697
    6	10783172
    7	907131
Edge intersection testing:
    Number of edges             : 56869137
    Number of edges to retest   : 13346
    Number of intersected edges : 2253073
Refined mesh in = 3.46 s
After refinement shell refinement iteration 7 : cells:18163628  faces:56869137  points:20547956
Cells per refinement level:
    0	764664
    1	588367
    2	515544
    3	2257962
    4	480408
    5	1864747
    6	10783213
    7	908723

Shell refinement iteration 8
----------------------------

Marked for refinement due to distance to explicit features : 0 cells.
Marked for refinement due to refinement shells             : 0 cells.
Determined cells to refine in = 0.86 s
Selected for internal refinement : 233 cells (out of 18163628)
Skipping balancing since max unbalance 0.0491961 is less than allowable 0.1
After balancing shell refinement iteration 8 : cells:18163628  faces:56869137  points:20547956
Cells per refinement level:
    0	764664
    1	588367
    2	515544
    3	2257962
    4	480408
    5	1864747
    6	10783213
    7	908723
Edge intersection testing:
    Number of edges             : 56874291
    Number of edges to retest   : 12884
    Number of intersected edges : 2253211
Refined mesh in = 3.11 s
After refinement shell refinement iteration 8 : cells:18165259  faces:56874291  points:20549848
Cells per refinement level:
    0	764664
    1	588367
    2	515544
    3	2257962
    4	480398
    5	1864790
    6	10783323
    7	910211

Shell refinement iteration 9
----------------------------

Marked for refinement due to distance to explicit features : 0 cells.
Marked for refinement due to refinement shells             : 0 cells.
Determined cells to refine in = 0.86 s
Selected for internal refinement : 245 cells (out of 18165259)
Skipping balancing since max unbalance 0.0492858 is less than allowable 0.1
After balancing shell refinement iteration 9 : cells:18165259  faces:56874291  points:20549848
Cells per refinement level:
    0	764664
    1	588367
    2	515544
    3	2257962
    4	480398
    5	1864790
    6	10783323
    7	910211
Edge intersection testing:
    Number of edges             : 56879697
    Number of edges to retest   : 13615
    Number of intersected edges : 2253361
Refined mesh in = 3.31 s
After refinement shell refinement iteration 9 : cells:18166974  faces:56879697  points:20551824
Cells per refinement level:
    0	764664
    1	588367
    2	515544
    3	2257953
    4	480461
    5	1864833
    6	10783357
    7	911795

Shell refinement iteration 10
----------------------------

Marked for refinement due to distance to explicit features : 0 cells.
Marked for refinement due to refinement shells             : 0 cells.
Determined cells to refine in = 0.85 s
Selected for internal refinement : 227 cells (out of 18166974)
Skipping balancing since max unbalance 0.049369 is less than allowable 0.1
After balancing shell refinement iteration 10 : cells:18166974  faces:56879697  points:20551824
Cells per refinement level:
    0	764664
    1	588367
    2	515544
    3	2257953
    4	480461
    5	1864833
    6	10783357
    7	911795
Edge intersection testing:
    Number of edges             : 56884704
    Number of edges to retest   : 12704
    Number of intersected edges : 2253490
Refined mesh in = 3.11 s
After refinement shell refinement iteration 10 : cells:18168563  faces:56884704  points:20553653
Cells per refinement level:
    0	764664
    1	588367
    2	515544
    3	2257949
    4	480486
    5	1864855
    6	10783447
    7	913251

Shell refinement iteration 11
----------------------------

Marked for refinement due to distance to explicit features : 0 cells.
Marked for refinement due to refinement shells             : 0 cells.
Determined cells to refine in = 0.87 s
Selected for internal refinement : 233 cells (out of 18168563)
Skipping balancing since max unbalance 0.0494543 is less than allowable 0.1
After balancing shell refinement iteration 11 : cells:18168563  faces:56884704  points:20553653
Cells per refinement level:
    0	764664
    1	588367
    2	515544
    3	2257949
    4	480486
    5	1864855
    6	10783447
    7	913251
Edge intersection testing:
    Number of edges             : 56889855
    Number of edges to retest   : 12757
    Number of intersected edges : 2253643
Refined mesh in = 3.29 s
After refinement shell refinement iteration 11 : cells:18170194  faces:56889855  points:20555542
Cells per refinement level:
    0	764664
    1	588367
    2	515544
    3	2257948
    4	480485
    5	1864897
    6	10783494
    7	914795

Shell refinement iteration 12
----------------------------

Marked for refinement due to distance to explicit features : 0 cells.
Marked for refinement due to refinement shells             : 0 cells.
Determined cells to refine in = 0.87 s
Selected for internal refinement : 223 cells (out of 18170194)
Skipping balancing since max unbalance 0.0495359 is less than allowable 0.1
After balancing shell refinement iteration 12 : cells:18170194  faces:56889855  points:20555542
Cells per refinement level:
    0	764664
    1	588367
    2	515544
    3	2257948
    4	480485
    5	1864897
    6	10783494
    7	914795
Edge intersection testing:
    Number of edges             : 56894769
    Number of edges to retest   : 12371
    Number of intersected edges : 2253772
Refined mesh in = 3.1 s
After refinement shell refinement iteration 12 : cells:18171755  faces:56894769  points:20557333
Cells per refinement level:
    0	764664
    1	588367
    2	515544
    3	2257945
    4	480503
    5	1864912
    6	10783577
    7	916243

Shell refinement iteration 13
----------------------------

Marked for refinement due to distance to explicit features : 0 cells.
Marked for refinement due to refinement shells             : 0 cells.
Determined cells to refine in = 0.87 s
Selected for internal refinement : 239 cells (out of 18171755)
Skipping balancing since max unbalance 0.0496234 is less than allowable 0.1
After balancing shell refinement iteration 13 : cells:18171755  faces:56894769  points:20557333
Cells per refinement level:
    0	764664
    1	588367
    2	515544
    3	2257945
    4	480503
    5	1864912
    6	10783577
    7	916243
Edge intersection testing:
    Number of edges             : 56900052
    Number of edges to retest   : 13080
    Number of intersected edges : 2253925
Refined mesh in = 3.11 s
After refinement shell refinement iteration 13 : cells:18173428  faces:56900052  points:20559270
Cells per refinement level:
    0	764664
    1	588367
    2	515544
    3	2257942
    4	480518
    5	1864954
    6	10783620
    7	917819

Shell refinement iteration 14
----------------------------

Marked for refinement due to distance to explicit features : 0 cells.
Marked for refinement due to refinement shells             : 0 cells.
Determined cells to refine in = 0.88 s
Selected for internal refinement : 226 cells (out of 18173428)
Skipping balancing since max unbalance 0.0497062 is less than allowable 0.1
After balancing shell refinement iteration 14 : cells:18173428  faces:56900052  points:20559270
Cells per refinement level:
    0	764664
    1	588367
    2	515544
    3	2257942
    4	480518
    5	1864954
    6	10783620
    7	917819
Edge intersection testing:
    Number of edges             : 56904999
    Number of edges to retest   : 12358
    Number of intersected edges : 2254054
Refined mesh in = 3.12 s
After refinement shell refinement iteration 14 : cells:18175010  faces:56904999  points:20561048
Cells per refinement level:
    0	764664
    1	588367
    2	515544
    3	2257939
    4	480535
    5	1864976
    6	10783710
    7	919275

Shell refinement iteration 15
----------------------------

Marked for refinement due to distance to explicit features : 0 cells.
Marked for refinement due to refinement shells             : 0 cells.
Determined cells to refine in = 0.86 s
Selected for internal refinement : 178 cells (out of 18175010)
Skipping balancing since max unbalance 0.0497713 is less than allowable 0.1
After balancing shell refinement iteration 15 : cells:18175010  faces:56904999  points:20561048
Cells per refinement level:
    0	764664
    1	588367
    2	515544
    3	2257939
    4	480535
    5	1864976
    6	10783710
    7	919275
Edge intersection testing:
    Number of edges             : 56908893
    Number of edges to retest   : 9950
    Number of intersected edges : 2254165
Refined mesh in = 3.12 s
After refinement shell refinement iteration 15 : cells:18176256  faces:56908893  points:20562446
Cells per refinement level:
    0	764664
    1	588367
    2	515544
    3	2257939
    4	480529
    5	1865000
    6	10783754
    7	920459

Shell refinement iteration 16
----------------------------

Marked for refinement due to distance to explicit features : 0 cells.
Marked for refinement due to refinement shells             : 0 cells.
Determined cells to refine in = 0.87 s
Selected for internal refinement : 148 cells (out of 18176256)
Skipping balancing since max unbalance 0.0498255 is less than allowable 0.1
After balancing shell refinement iteration 16 : cells:18176256  faces:56908893  points:20562446
Cells per refinement level:
    0	764664
    1	588367
    2	515544
    3	2257939
    4	480529
    5	1865000
    6	10783754
    7	920459
Edge intersection testing:
    Number of edges             : 56912157
    Number of edges to retest   : 8156
    Number of intersected edges : 2254252
Refined mesh in = 3.12 s
After refinement shell refinement iteration 16 : cells:18177292  faces:56912157  points:20563638
Cells per refinement level:
    0	764664
    1	588367
    2	515544
    3	2257939
    4	480525
    5	1865010
    6	10783808
    7	921435

Shell refinement iteration 17
----------------------------

Marked for refinement due to distance to explicit features : 0 cells.
Marked for refinement due to refinement shells             : 0 cells.
Determined cells to refine in = 0.88 s
Selected for internal refinement : 161 cells (out of 18177292)
Skipping balancing since max unbalance 0.0498844 is less than allowable 0.1
After balancing shell refinement iteration 17 : cells:18177292  faces:56912157  points:20563638
Cells per refinement level:
    0	764664
    1	588367
    2	515544
    3	2257939
    4	480525
    5	1865010
    6	10783808
    7	921435
Edge intersection testing:
    Number of edges             : 56915715
    Number of edges to retest   : 8751
    Number of intersected edges : 2254357
Refined mesh in = 3.13 s
After refinement shell refinement iteration 17 : cells:18178419  faces:56915715  points:20564942
Cells per refinement level:
    0	764664
    1	588367
    2	515544
    3	2257936
    4	480543
    5	1865040
    6	10783818
    7	922507

Shell refinement iteration 18
----------------------------

Marked for refinement due to distance to explicit features : 0 cells.
Marked for refinement due to refinement shells             : 0 cells.
Determined cells to refine in = 0.86 s
Selected for internal refinement : 149 cells (out of 18178419)
Skipping balancing since max unbalance 0.0499389 is less than allowable 0.1
After balancing shell refinement iteration 18 : cells:18178419  faces:56915715  points:20564942
Cells per refinement level:
    0	764664
    1	588367
    2	515544
    3	2257936
    4	480543
    5	1865040
    6	10783818
    7	922507
Edge intersection testing:
    Number of edges             : 56919003
    Number of edges to retest   : 8332
    Number of intersected edges : 2254444
Refined mesh in = 3.13 s
After refinement shell refinement iteration 18 : cells:18179462  faces:56919003  points:20566144
Cells per refinement level:
    0	764664
    1	588367
    2	515544
    3	2257933
    4	480563
    5	1865050
    6	10783874
    7	923467

Shell refinement iteration 19
----------------------------

Marked for refinement due to distance to explicit features : 0 cells.
Marked for refinement due to refinement shells             : 0 cells.
Determined cells to refine in = 0.87 s
Selected for internal refinement : 160 cells (out of 18179462)
Skipping balancing since max unbalance 0.0499974 is less than allowable 0.1
After balancing shell refinement iteration 19 : cells:18179462  faces:56919003  points:20566144
Cells per refinement level:
    0	764664
    1	588367
    2	515544
    3	2257933
    4	480563
    5	1865050
    6	10783874
    7	923467
Edge intersection testing:
    Number of edges             : 56922534
    Number of edges to retest   : 8642
    Number of intersected edges : 2254549
Refined mesh in = 3.12 s
After refinement shell refinement iteration 19 : cells:18180582  faces:56922534  points:20567435
Cells per refinement level:
    0	764664
    1	588367
    2	515544
    3	2257933
    4	480557
    5	1865080
    6	10783882
    7	924555

Shell refinement iteration 20
----------------------------

Marked for refinement due to distance to explicit features : 0 cells.
Marked for refinement due to refinement shells             : 0 cells.
Determined cells to refine in = 0.87 s
Selected for internal refinement : 146 cells (out of 18180582)
Skipping balancing since max unbalance 0.0500508 is less than allowable 0.1
After balancing shell refinement iteration 20 : cells:18180582  faces:56922534  points:20567435
Cells per refinement level:
    0	764664
    1	588367
    2	515544
    3	2257933
    4	480557
    5	1865080
    6	10783882
    7	924555
Edge intersection testing:
    Number of edges             : 56925753
    Number of edges to retest   : 8095
    Number of intersected edges : 2254636
Refined mesh in = 3.12 s
After refinement shell refinement iteration 20 : cells:18181604  faces:56925753  points:20568610
Cells per refinement level:
    0	764664
    1	588367
    2	515544
    3	2257933
    4	480553
    5	1865090
    6	10783938
    7	925515

Shell refinement iteration 21
----------------------------

Marked for refinement due to distance to explicit features : 0 cells.
Marked for refinement due to refinement shells             : 0 cells.
Determined cells to refine in = 0.88 s
Selected for internal refinement : 162 cells (out of 18181604)
Skipping balancing since max unbalance 0.0501101 is less than allowable 0.1
After balancing shell refinement iteration 21 : cells:18181604  faces:56925753  points:20568610
Cells per refinement level:
    0	764664
    1	588367
    2	515544
    3	2257933
    4	480553
    5	1865090
    6	10783938
    7	925515
Edge intersection testing:
    Number of edges             : 56929332
    Number of edges to retest   : 8794
    Number of intersected edges : 2254741
Refined mesh in = 3.14 s
After refinement shell refinement iteration 21 : cells:18182738  faces:56929332  points:20569921
Cells per refinement level:
    0	764664
    1	588367
    2	515544
    3	2257930
    4	480572
    5	1865112
    6	10783946
    7	926603

Shell refinement iteration 22
----------------------------

Marked for refinement due to distance to explicit features : 0 cells.
Marked for refinement due to refinement shells             : 0 cells.
Determined cells to refine in = 0.87 s
Selected for internal refinement : 149 cells (out of 18182738)
Skipping balancing since max unbalance 0.0501645 is less than allowable 0.1
After balancing shell refinement iteration 22 : cells:18182738  faces:56929332  points:20569921
Cells per refinement level:
    0	764664
    1	588367
    2	515544
    3	2257930
    4	480572
    5	1865112
    6	10783946
    7	926603
Edge intersection testing:
    Number of edges             : 56932620
    Number of edges to retest   : 8255
    Number of intersected edges : 2254828
Refined mesh in = 3.14 s
After refinement shell refinement iteration 22 : cells:18183781  faces:56932620  points:20571123
Cells per refinement level:
    0	764664
    1	588367
    2	515544
    3	2257927
    4	480593
    5	1865114
    6	10784001
    7	927571

Shell refinement iteration 23
----------------------------

Marked for refinement due to distance to explicit features : 0 cells.
Marked for refinement due to refinement shells             : 0 cells.
Determined cells to refine in = 0.86 s
Selected for internal refinement : 153 cells (out of 18183781)
Skipping balancing since max unbalance 0.0502205 is less than allowable 0.1
After balancing shell refinement iteration 23 : cells:18183781  faces:56932620  points:20571123
Cells per refinement level:
    0	764664
    1	588367
    2	515544
    3	2257927
    4	480593
    5	1865114
    6	10784001
    7	927571
Edge intersection testing:
    Number of edges             : 56935998
    Number of edges to retest   : 8276
    Number of intersected edges : 2254924
Refined mesh in = 3.13 s
After refinement shell refinement iteration 23 : cells:18184852  faces:56935998  points:20572359
Cells per refinement level:
    0	764664
    1	588367
    2	515544
    3	2257927
    4	480588
    5	1865137
    6	10784006
    7	928619

Shell refinement iteration 24
----------------------------

Marked for refinement due to distance to explicit features : 0 cells.
Marked for refinement due to refinement shells             : 0 cells.
Determined cells to refine in = 0.87 s
Selected for internal refinement : 152 cells (out of 18184852)
Skipping balancing since max unbalance 0.050276 is less than allowable 0.1
After balancing shell refinement iteration 24 : cells:18184852  faces:56935998  points:20572359
Cells per refinement level:
    0	764664
    1	588367
    2	515544
    3	2257927
    4	480588
    5	1865137
    6	10784006
    7	928619
Edge intersection testing:
    Number of edges             : 56939358
    Number of edges to retest   : 8309
    Number of intersected edges : 2255020
Refined mesh in = 3.14 s
After refinement shell refinement iteration 24 : cells:18185916  faces:56939358  points:20573591
Cells per refinement level:
    0	764664
    1	588367
    2	515544
    3	2257927
    4	480584
    5	1865146
    6	10784065
    7	929619

Shell refinement iteration 25
----------------------------

Marked for refinement due to distance to explicit features : 0 cells.
Marked for refinement due to refinement shells             : 0 cells.
Determined cells to refine in = 0.86 s
Selected for internal refinement : 162 cells (out of 18185916)
Skipping balancing since max unbalance 0.0503353 is less than allowable 0.1
After balancing shell refinement iteration 25 : cells:18185916  faces:56939358  points:20573591
Cells per refinement level:
    0	764664
    1	588367
    2	515544
    3	2257927
    4	480584
    5	1865146
    6	10784065
    7	929619
Edge intersection testing:
    Number of edges             : 56942937
    Number of edges to retest   : 8820
    Number of intersected edges : 2255125
Refined mesh in = 3.14 s
After refinement shell refinement iteration 25 : cells:18187050  faces:56942937  points:20574902
Cells per refinement level:
    0	764664
    1	588367
    2	515544
    3	2257924
    4	480601
    5	1865184
    6	10784075
    7	930691

Shell refinement iteration 26
----------------------------

Marked for refinement due to distance to explicit features : 0 cells.
Marked for refinement due to refinement shells             : 0 cells.
Determined cells to refine in = 0.91 s
Selected for internal refinement : 151 cells (out of 18187050)
Skipping balancing since max unbalance 0.0503905 is less than allowable 0.1
After balancing shell refinement iteration 26 : cells:18187050  faces:56942937  points:20574902
Cells per refinement level:
    0	764664
    1	588367
    2	515544
    3	2257924
    4	480601
    5	1865184
    6	10784075
    7	930691
Edge intersection testing:
    Number of edges             : 56946270
    Number of edges to retest   : 8373
    Number of intersected edges : 2255212
Refined mesh in = 3.14 s
After refinement shell refinement iteration 26 : cells:18188107  faces:56946270  points:20576121
Cells per refinement level:
    0	764664
    1	588367
    2	515544
    3	2257922
    4	480613
    5	1865194
    6	10784128
    7	931675

Shell refinement iteration 27
----------------------------

Marked for refinement due to distance to explicit features : 0 cells.
Marked for refinement due to refinement shells             : 0 cells.
Determined cells to refine in = 0.88 s
Selected for internal refinement : 161 cells (out of 18188107)
Skipping balancing since max unbalance 0.0504493 is less than allowable 0.1
After balancing shell refinement iteration 27 : cells:18188107  faces:56946270  points:20576121
Cells per refinement level:
    0	764664
    1	588367
    2	515544
    3	2257922
    4	480613
    5	1865194
    6	10784128
    7	931675
Edge intersection testing:
    Number of edges             : 56949828
    Number of edges to retest   : 8725
    Number of intersected edges : 2255317
Refined mesh in = 3.21 s
After refinement shell refinement iteration 27 : cells:18189234  faces:56949828  points:20577425
Cells per refinement level:
    0	764664
    1	588367
    2	515544
    3	2257922
    4	480604
    5	1865247
    6	10784147
    7	932739

Shell refinement iteration 28
----------------------------

Marked for refinement due to distance to explicit features : 0 cells.
Marked for refinement due to refinement shells             : 0 cells.
Determined cells to refine in = 0.87 s
Selected for internal refinement : 154 cells (out of 18189234)
Skipping balancing since max unbalance 0.0505056 is less than allowable 0.1
After balancing shell refinement iteration 28 : cells:18189234  faces:56949828  points:20577425
Cells per refinement level:
    0	764664
    1	588367
    2	515544
    3	2257922
    4	480604
    5	1865247
    6	10784147
    7	932739
Edge intersection testing:
    Number of edges             : 56953227
    Number of edges to retest   : 8593
    Number of intersected edges : 2255410
Refined mesh in = 3.15 s
After refinement shell refinement iteration 28 : cells:18190312  faces:56953227  points:20578668
Cells per refinement level:
    0	764664
    1	588367
    2	515544
    3	2257918
    4	480632
    5	1865257
    6	10784199
    7	933731

Shell refinement iteration 29
----------------------------

Marked for refinement due to distance to explicit features : 0 cells.
Marked for refinement due to refinement shells             : 0 cells.
Determined cells to refine in = 0.87 s
Selected for internal refinement : 164 cells (out of 18190312)
Skipping balancing since max unbalance 0.0505655 is less than allowable 0.1
After balancing shell refinement iteration 29 : cells:18190312  faces:56953227  points:20578668
Cells per refinement level:
    0	764664
    1	588367
    2	515544
    3	2257918
    4	480632
    5	1865257
    6	10784199
    7	933731
Edge intersection testing:
    Number of edges             : 56956845
    Number of edges to retest   : 8970
    Number of intersected edges : 2255509
Refined mesh in = 3.15 s
After refinement shell refinement iteration 29 : cells:18191460  faces:56956845  points:20579990
Cells per refinement level:
    0	764664
    1	588367
    2	515544
    3	2257915
    4	480650
    5	1865286
    6	10784215
    7	934819

Shell refinement iteration 30
----------------------------

Marked for refinement due to distance to explicit features : 0 cells.
Marked for refinement due to refinement shells             : 0 cells.
Determined cells to refine in = 0.87 s
Selected for internal refinement : 148 cells (out of 18191460)
Skipping balancing since max unbalance 0.0506196 is less than allowable 0.1
After balancing shell refinement iteration 30 : cells:18191460  faces:56956845  points:20579990
Cells per refinement level:
    0	764664
    1	588367
    2	515544
    3	2257915
    4	480650
    5	1865286
    6	10784215
    7	934819
Edge intersection testing:
    Number of edges             : 56960112
    Number of edges to retest   : 8255
    Number of intersected edges : 2255596
Refined mesh in = 3.15 s
After refinement shell refinement iteration 30 : cells:18192496  faces:56960112  points:20581185
Cells per refinement level:
    0	764664
    1	588367
    2	515544
    3	2257912
    4	480670
    5	1865296
    6	10784272
    7	935771

Shell refinement iteration 31
----------------------------

Marked for refinement due to distance to explicit features : 0 cells.
Marked for refinement due to refinement shells             : 0 cells.
Determined cells to refine in = 0.88 s
Selected for internal refinement : 157 cells (out of 18192496)
Skipping balancing since max unbalance 0.0506769 is less than allowable 0.1
After balancing shell refinement iteration 31 : cells:18192496  faces:56960112  points:20581185
Cells per refinement level:
    0	764664
    1	588367
    2	515544
    3	2257912
    4	480670
    5	1865296
    6	10784272
    7	935771
Edge intersection testing:
    Number of edges             : 56963583
    Number of edges to retest   : 8500
    Number of intersected edges : 2255701
Refined mesh in = 3.15 s
After refinement shell refinement iteration 31 : cells:18193595  faces:56963583  points:20582458
Cells per refinement level:
    0	764664
    1	588367
    2	515544
    3	2257912
    4	480664
    5	1865326
    6	10784283
    7	936835

Shell refinement iteration 32
----------------------------

[...]
    faces with interpolation weights (0..1)  < 0.02        : 0
    faces with volume ratio of neighbour cells < 0.01      : 0
    faces with face twist < 0.02                           : 0
    faces on cells with determinant < 1e-05                : 0
displacementMedialAxis : Iteration 4
Moving mesh using displacement scaling : min:0  max:1
Checking faces in error :
    non-orthogonality > 65  degrees                        : 1
    faces with face pyramid volume < 1e-13                 : 0
    faces with face-decomposition tet quality < 1e-15      : 1
    faces with concavity > 80  degrees                     : 0
    faces with skewness > 4   (internal) or 20  (boundary) : 0
    faces with interpolation weights (0..1)  < 0.02        : 0
    faces with volume ratio of neighbour cells < 0.01      : 0
    faces with face twist < 0.02                           : 0
    faces on cells with determinant < 1e-05                : 0
displacementMedialAxis : Iteration 5
Moving mesh using displacement scaling : min:0  max:1
Checking faces in error :
    non-orthogonality > 65  degrees                        : 0
    faces with face pyramid volume < 1e-13                 : 0
    faces with face-decomposition tet quality < 1e-15      : 0
    faces with concavity > 80  degrees                     : 0
    faces with skewness > 4   (internal) or 20  (boundary) : 0
    faces with interpolation weights (0..1)  < 0.02        : 0
    faces with volume ratio of neighbour cells < 0.01      : 0
    faces with face twist < 0.02                           : 0
    faces on cells with determinant < 1e-05                : 0
displacementMedialAxis : Successfully moved mesh
displacementMedialAxis : Finished moving mesh ...
truncateDisplacement : Unextruded 25 faces due to non-consecutive vertices being extruded.
truncateDisplacement : Unextruded 0 faces due to stringed edges with inconsistent extrusion.
truncateDisplacement : Unextruded 0 faces due to non-consecutive vertices being extruded.
truncateDisplacement : Unextruded 0 faces due to stringed edges with inconsistent extrusion.

Setting up information for layer truncation ...

Checking mesh with layer ...
Checking faces in error :
    non-orthogonality > 65  degrees                        : 13
    faces with face pyramid volume < 1e-13                 : 0
    faces with face-decomposition tet quality < 1e-15      : 84
    faces with concavity > 80  degrees                     : 0
    faces with skewness > 4   (internal) or 20  (boundary) : 0
    faces with interpolation weights (0..1)  < 0.02        : 0
    faces with volume ratio of neighbour cells < 0.01      : 0
    faces with face twist < 0.02                           : 1
    faces on cells with determinant < 1e-05                : 0
Detected 98 illegal faces (concave, zero area or negative cell pyramid volume)
Extruding 2004323 out of 2024345 faces (99.0109%). Removed extrusion at 89 faces.
Added 33439624 out of 34544101 cells (96.8027%).


Layer addition iteration 2
--------------------------

Determining displacement for added points according to pointNormal ...
Detected 0 points with point normal pointing through faces.
Reset displacement at 0 points to average of surrounding points.

displacementMedialAxis : Smoothing using Medial Axis ...
displacementMedialAxis : Reducing layer thickness at 7348 nodes where thickness to medial axis distance is large 
displacementMedialAxis : Removing isolated regions ...
displacementMedialAxis : Number of isolated points extrusion stopped : 142
displacementMedialAxis : Smoothing field ...
    Iteration 0   residual 2.42013e-05
displacementMedialAxis : Moving mesh ...
displacementMedialAxis : Iteration 0
Moving mesh using displacement scaling : min:1  max:1
Checking faces in error :
    non-orthogonality > 65  degrees                        : 91
    faces with face pyramid volume < 1e-13                 : 4
    faces with face-decomposition tet quality < 1e-15      : 103
    faces with concavity > 80  degrees                     : 3
    faces with skewness > 4   (internal) or 20  (boundary) : 0
    faces with interpolation weights (0..1)  < 0.02        : 0
    faces with volume ratio of neighbour cells < 0.01      : 0
    faces with face twist < 0.02                           : 0
    faces on cells with determinant < 1e-05                : 0
displacementMedialAxis : Iteration 1
Moving mesh using displacement scaling : min:0.75  max:1
Checking faces in error :
    non-orthogonality > 65  degrees                        : 9
    faces with face pyramid volume < 1e-13                 : 0
    faces with face-decomposition tet quality < 1e-15      : 13
    faces with concavity > 80  degrees                     : 0
    faces with skewness > 4   (internal) or 20  (boundary) : 0
    faces with interpolation weights (0..1)  < 0.02        : 0
    faces with volume ratio of neighbour cells < 0.01      : 0
    faces with face twist < 0.02                           : 0
    faces on cells with determinant < 1e-05                : 0
displacementMedialAxis : Iteration 2
Moving mesh using displacement scaling : min:0.5625  max:1
Checking faces in error :
    non-orthogonality > 65  degrees                        : 0
    faces with face pyramid volume < 1e-13                 : 0
    faces with face-decomposition tet quality < 1e-15      : 5
    faces with concavity > 80  degrees                     : 0
    faces with skewness > 4   (internal) or 20  (boundary) : 0
    faces with interpolation weights (0..1)  < 0.02        : 0
    faces with volume ratio of neighbour cells < 0.01      : 0
    faces with face twist < 0.02                           : 0
    faces on cells with determinant < 1e-05                : 0
displacementMedialAxis : Iteration 3
displacementMedialAxis : Displacement scaling for error reduction set to 0.
Moving mesh using displacement scaling : min:0.421875  max:1
Checking faces in error :
    non-orthogonality > 65  degrees                        : 0
    faces with face pyramid volume < 1e-13                 : 0
    faces with face-decomposition tet quality < 1e-15      : 4
    faces with concavity > 80  degrees                     : 0
    faces with skewness > 4   (internal) or 20  (boundary) : 0
    faces with interpolation weights (0..1)  < 0.02        : 0
    faces with volume ratio of neighbour cells < 0.01      : 0
    faces with face twist < 0.02                           : 0
    faces on cells with determinant < 1e-05                : 0
displacementMedialAxis : Iteration 4
Moving mesh using displacement scaling : min:0  max:1
Checking faces in error :
    non-orthogonality > 65  degrees                        : 0
    faces with face pyramid volume < 1e-13                 : 0
    faces with face-decomposition tet quality < 1e-15      : 0
    faces with concavity > 80  degrees                     : 0
    faces with skewness > 4   (internal) or 20  (boundary) : 0
    faces with interpolation weights (0..1)  < 0.02        : 0
    faces with volume ratio of neighbour cells < 0.01      : 0
    faces with face twist < 0.02                           : 0
    faces on cells with determinant < 1e-05                : 0
displacementMedialAxis : Successfully moved mesh
displacementMedialAxis : Finished moving mesh ...
truncateDisplacement : Unextruded 3 faces due to non-consecutive vertices being extruded.
truncateDisplacement : Unextruded 0 faces due to stringed edges with inconsistent extrusion.
truncateDisplacement : Unextruded 0 faces due to non-consecutive vertices being extruded.
truncateDisplacement : Unextruded 0 faces due to stringed edges with inconsistent extrusion.

Setting up information for layer truncation ...

Checking mesh with layer ...
Checking faces in error :
    non-orthogonality > 65  degrees                        : 1
    faces with face pyramid volume < 1e-13                 : 0
    faces with face-decomposition tet quality < 1e-15      : 22
    faces with concavity > 80  degrees                     : 0
    faces with skewness > 4   (internal) or 20  (boundary) : 0
    faces with interpolation weights (0..1)  < 0.02        : 0
    faces with volume ratio of neighbour cells < 0.01      : 0
    faces with face twist < 0.02                           : 0
    faces on cells with determinant < 1e-05                : 0
Detected 23 illegal faces (concave, zero area or negative cell pyramid volume)
Extruding 2004139 out of 2024345 faces (99.0018%). Removed extrusion at 22 faces.
Added 33428881 out of 34544101 cells (96.7716%).


Layer addition iteration 3
--------------------------

Determining displacement for added points according to pointNormal ...
Detected 0 points with point normal pointing through faces.
Reset displacement at 0 points to average of surrounding points.

displacementMedialAxis : Smoothing using Medial Axis ...
displacementMedialAxis : Reducing layer thickness at 7348 nodes where thickness to medial axis distance is large 
displacementMedialAxis : Removing isolated regions ...
displacementMedialAxis : Number of isolated points extrusion stopped : 33
displacementMedialAxis : Smoothing field ...
    Iteration 0   residual 2.41944e-05
displacementMedialAxis : Moving mesh ...
displacementMedialAxis : Iteration 0
Moving mesh using displacement scaling : min:1  max:1
Checking faces in error :
    non-orthogonality > 65  degrees                        : 89
    faces with face pyramid volume < 1e-13                 : 4
    faces with face-decomposition tet quality < 1e-15      : 99
    faces with concavity > 80  degrees                     : 3
    faces with skewness > 4   (internal) or 20  (boundary) : 0
    faces with interpolation weights (0..1)  < 0.02        : 0
    faces with volume ratio of neighbour cells < 0.01      : 0
    faces with face twist < 0.02                           : 0
    faces on cells with determinant < 1e-05                : 0
displacementMedialAxis : Iteration 1
Moving mesh using displacement scaling : min:0.75  max:1
Checking faces in error :
    non-orthogonality > 65  degrees                        : 9
    faces with face pyramid volume < 1e-13                 : 0
    faces with face-decomposition tet quality < 1e-15      : 9
    faces with concavity > 80  degrees                     : 0
    faces with skewness > 4   (internal) or 20  (boundary) : 0
    faces with interpolation weights (0..1)  < 0.02        : 0
    faces with volume ratio of neighbour cells < 0.01      : 0
    faces with face twist < 0.02                           : 0
    faces on cells with determinant < 1e-05                : 0
displacementMedialAxis : Iteration 2
Moving mesh using displacement scaling : min:0.5625  max:1
Checking faces in error :
    non-orthogonality > 65  degrees                        : 0
    faces with face pyramid volume < 1e-13                 : 0
    faces with face-decomposition tet quality < 1e-15      : 1
    faces with concavity > 80  degrees                     : 0
    faces with skewness > 4   (internal) or 20  (boundary) : 0
    faces with interpolation weights (0..1)  < 0.02        : 0
    faces with volume ratio of neighbour cells < 0.01      : 0
    faces with face twist < 0.02                           : 0
    faces on cells with determinant < 1e-05                : 0
displacementMedialAxis : Iteration 3
displacementMedialAxis : Displacement scaling for error reduction set to 0.
Moving mesh using displacement scaling : min:0.421875  max:1
Checking faces in error :
    non-orthogonality > 65  degrees                        : 0
    faces with face pyramid volume < 1e-13                 : 0
    faces with face-decomposition tet quality < 1e-15      : 0
    faces with concavity > 80  degrees                     : 0
    faces with skewness > 4   (internal) or 20  (boundary) : 0
    faces with interpolation weights (0..1)  < 0.02        : 0
    faces with volume ratio of neighbour cells < 0.01      : 0
    faces with face twist < 0.02                           : 0
    faces on cells with determinant < 1e-05                : 0
displacementMedialAxis : Successfully moved mesh
displacementMedialAxis : Finished moving mesh ...
truncateDisplacement : Unextruded 0 faces due to non-consecutive vertices being extruded.
truncateDisplacement : Unextruded 0 faces due to stringed edges with inconsistent extrusion.

Setting up information for layer truncation ...

Checking mesh with layer ...
Checking faces in error :
    non-orthogonality > 65  degrees                        : 0
    faces with face pyramid volume < 1e-13                 : 0
    faces with face-decomposition tet quality < 1e-15      : 8
    faces with concavity > 80  degrees                     : 0
    faces with skewness > 4   (internal) or 20  (boundary) : 0
    faces with interpolation weights (0..1)  < 0.02        : 0
    faces with volume ratio of neighbour cells < 0.01      : 0
    faces with face twist < 0.02                           : 0
    faces on cells with determinant < 1e-05                : 0
Detected 8 illegal faces (concave, zero area or negative cell pyramid volume)
Extruding 2004074 out of 2024345 faces (98.9986%). Removed extrusion at 8 faces.
Added 33427800 out of 34544101 cells (96.7685%).


Layer addition iteration 4
--------------------------

Determining displacement for added points according to pointNormal ...
Detected 0 points with point normal pointing through faces.
Reset displacement at 0 points to average of surrounding points.

displacementMedialAxis : Smoothing using Medial Axis ...
displacementMedialAxis : Reducing layer thickness at 7348 nodes where thickness to medial axis distance is large 
displacementMedialAxis : Removing isolated regions ...
displacementMedialAxis : Number of isolated points extrusion stopped : 4
displacementMedialAxis : Smoothing field ...
    Iteration 0   residual 2.41971e-05
displacementMedialAxis : Moving mesh ...
displacementMedialAxis : Iteration 0
Moving mesh using displacement scaling : min:1  max:1
Checking faces in error :
    non-orthogonality > 65  degrees                        : 89
    faces with face pyramid volume < 1e-13                 : 4
    faces with face-decomposition tet quality < 1e-15      : 99
    faces with concavity > 80  degrees                     : 3
    faces with skewness > 4   (internal) or 20  (boundary) : 0
    faces with interpolation weights (0..1)  < 0.02        : 0
    faces with volume ratio of neighbour cells < 0.01      : 0
    faces with face twist < 0.02                           : 0
    faces on cells with determinant < 1e-05                : 0
displacementMedialAxis : Iteration 1
Moving mesh using displacement scaling : min:0.75  max:1
Checking faces in error :
    non-orthogonality > 65  degrees                        : 9
    faces with face pyramid volume < 1e-13                 : 0
    faces with face-decomposition tet quality < 1e-15      : 9
    faces with concavity > 80  degrees                     : 0
    faces with skewness > 4   (internal) or 20  (boundary) : 0
    faces with interpolation weights (0..1)  < 0.02        : 0
    faces with volume ratio of neighbour cells < 0.01      : 0
    faces with face twist < 0.02                           : 0
    faces on cells with determinant < 1e-05                : 0
displacementMedialAxis : Iteration 2
Moving mesh using displacement scaling : min:0.5625  max:1
Checking faces in error :
    non-orthogonality > 65  degrees                        : 0
    faces with face pyramid volume < 1e-13                 : 0
    faces with face-decomposition tet quality < 1e-15      : 1
    faces with concavity > 80  degrees                     : 0
    faces with skewness > 4   (internal) or 20  (boundary) : 0
    faces with interpolation weights (0..1)  < 0.02        : 0
    faces with volume ratio of neighbour cells < 0.01      : 0
    faces with face twist < 0.02                           : 0
    faces on cells with determinant < 1e-05                : 0
displacementMedialAxis : Iteration 3
displacementMedialAxis : Displacement scaling for error reduction set to 0.
Moving mesh using displacement scaling : min:0.421875  max:1
Checking faces in error :
    non-orthogonality > 65  degrees                        : 0
    faces with face pyramid volume < 1e-13                 : 0
    faces with face-decomposition tet quality < 1e-15      : 0
    faces with concavity > 80  degrees                     : 0
    faces with skewness > 4   (internal) or 20  (boundary) : 0
    faces with interpolation weights (0..1)  < 0.02        : 0
    faces with volume ratio of neighbour cells < 0.01      : 0
    faces with face twist < 0.02                           : 0
    faces on cells with determinant < 1e-05                : 0
displacementMedialAxis : Successfully moved mesh
displacementMedialAxis : Finished moving mesh ...
truncateDisplacement : Unextruded 0 faces due to non-consecutive vertices being extruded.
truncateDisplacement : Unextruded 0 faces due to stringed edges with inconsistent extrusion.

Setting up information for layer truncation ...

Checking mesh with layer ...
Checking faces in error :
    non-orthogonality > 65  degrees                        : 0
    faces with face pyramid volume < 1e-13                 : 0
    faces with face-decomposition tet quality < 1e-15      : 0
    faces with concavity > 80  degrees                     : 0
    faces with skewness > 4   (internal) or 20  (boundary) : 0
    faces with interpolation weights (0..1)  < 0.02        : 0
    faces with volume ratio of neighbour cells < 0.01      : 0
    faces with face twist < 0.02                           : 0
    faces on cells with determinant < 1e-05                : 0
Detected 0 illegal faces (concave, zero area or negative cell pyramid volume)
Extruding 2004074 out of 2024345 faces (98.9986%). Removed extrusion at 0 faces.
Added 33427316 out of 34544101 cells (96.7671%).
Edge intersection testing:
    Number of edges             : 151140020
    Number of edges to retest   : 0
    Number of intersected edges : 35627438

Doing final balancing
---------------------

Writing 33427316 added cells to cellSet addedCells
Writing 31412097 faces inside added layer to faceSet layerFaces

Writing fields with layer information:
    nSurfaceLayers    : actual number of layers
    thickness         : overall layer thickness
    thicknessFraction : overall layer thickness (fraction of desired thickness)


patch        faces    layers   overall thickness
                               [m]       [%]
-----        -----    ------   ---       ---
lowerWallBB  0        0        0         0       
gtsModel     1959227  16.4     0.0113    98.1    
bottomNoSlip 43166    19       0.14      90.2    
bottomSlip   21952    19       0.532     98.7    


Removing zero-sized patches:
    frontAndBack type patch at position 0
    inletBB type patch at position 1
    outletBB type patch at position 2
    lowerWallBB type wall at position 3
    upperWallBB type patch at position 4

Layer mesh : cells:49560501  faces:151140020  points:52032210
Cells per refinement level:
    0	965760
    1	903425
    2	579384
    3	2915119
    4	480841
    5	1865904
    6	38809550
    7	3040518
Writing mesh to time constant
Wrote mesh in = 438.02 s.
Layers added in = 438.02 s.
Checking final mesh ...
Checking faces in error :
    non-orthogonality > 65  degrees                        : 0
    faces with face pyramid volume < 1e-13                 : 0
    faces with face-decomposition tet quality < 1e-15      : 0
    faces with concavity > 80  degrees                     : 0
    faces with skewness > 4   (internal) or 20  (boundary) : 0
    faces with interpolation weights (0..1)  < 0.02        : 0
    faces with volume ratio of neighbour cells < 0.01      : 0
    faces with face twist < 0.02                           : 0
    faces on cells with determinant < 1e-05                : 0
Finished meshing without any errors
Finished meshing in = 1302.42 s.
End

Finalising parallel run
