/*---------------------------------------------------------------------------*\
  =========                 |
  \\      /  F ield         | OpenFOAM: The Open Source CFD Toolbox
   \\    /   O peration     | Website:  https://openfoam.org
    \\  /    A nd           | Version:  7
     \\/     M anipulation  |
\*---------------------------------------------------------------------------*/
Build  : 7
Exec   : checkMesh
Date   : Aug 24 2022
Time   : 21:20:48
Host   : "compute-0-6.local"
PID    : 62601
I/O    : uncollated
Case   : /share/storage/finzeo/Mallas/GTSTunay/gtsconverted26
nProcs : 1
sigFpe : Enabling floating point exception trapping (FOAM_SIGFPE).
fileModificationChecking : Monitoring run-time modified files using timeStampMaster (fileModificationSkew 10)
allowSystemOperations : Allowing user-supplied system call operations

// * * * * * * * * * * * * * * * * * * * * * * * * * * * * * * * * * * * * * //
Create time

Create polyMesh for time = 0

Time = 0

Mesh stats
    points:           45102568
    faces:            131209152
    internal faces:   129237800
    cells:            43056318
    faces per cell:   6.04898
    boundary patches: 7
    point zones:      0
    face zones:       0
    cell zones:       0

Overall number of cells of each type:
    hexahedra:     42217198
    prisms:        49586
    wedges:        0
    pyramids:      0
    tet wedges:    22
    tetrahedra:    0
    polyhedra:     789512
    Breakdown of polyhedra by number of faces:
        faces   number of cells
            4   6489
            5   3336
            6   40837
            7   57825
            8   9632
            9   646434
           10   2
           12   22052
           15   2861
           18   44

Checking topology...
    Boundary definition OK.
    Cell to face addressing OK.
    Point usage OK.
    Upper triangular ordering OK.
    Face vertices OK.
    Number of regions: 1 (OK).

Checking patch topology for multiply connected surfaces...
                   Patch    Faces   Points                  Surface topology
                gtsModel  1848778  1854141      ok (closed singly connected)
                   inlet     4200     4331  ok (non-closed singly connected)
                  outlet     4200     4331  ok (non-closed singly connected)
                 lateral    36120    36778  ok (non-closed singly connected)
                     top    15480    15799  ok (non-closed singly connected)
            bottomNoSlip    43150    43733  ok (non-closed singly connected)
              bottomSlip    19424    19997  ok (non-closed singly connected)

Checking geometry...
    Overall domain bounding box (-37.8066 -18.0065 -0.504) (117.007 18.0065 32.4)
    Mesh has 3 geometric (non-empty/wedge) directions (1 1 1)
    Mesh has 3 solution (non-empty) directions (1 1 1)
    Boundary openness (-2.03993e-16 -1.0262e-16 1.49893e-13) OK.
    Max cell openness = 8.99569e-15 OK.
    Max aspect ratio = 279.936 OK.
    Minimum face area = 2.70139e-07. Maximum face area = 0.433455.  Face area magnitudes OK.
    Min volume = 2.27628e-09. Max volume = 0.257693.  Total volume = 183256.  Cell volumes OK.
    Mesh non-orthogonality Max: 64.0612 average: 3.97413
    Non-orthogonality check OK.
    Face pyramids OK.
    Max skewness = 2.50114 OK.
    Coupled point location match (average 0) OK.

Mesh OK.

End

