/*---------------------------------------------------------------------------*\
| =========                 |                                                 |
| \\      /  F ield         | OpenFOAM: The Open Source CFD Toolbox           |
|  \\    /   O peration     | Version:  v1812                                 |
|   \\  /    A nd           | Web:      www.OpenFOAM.com                      |
|    \\/     M anipulation  |                                                 |
\*---------------------------------------------------------------------------*/
Build  : v1812 OPENFOAM=1812
Arch   : "LSB;label=32;scalar=64"
Exec   : reconstructParMesh -mergeTol 1e-6 -constant
Date   : Mar 22 2023
Time   : 23:28:54
Host   : compute-0-12.local
PID    : 67645
I/O    : uncollated
Case   : /home/finzeo/storage/Mallas/test/GTS_ofcomfinal
nProcs : 1
trapFpe: Floating point exception trapping enabled (FOAM_SIGFPE).
fileModificationChecking : Monitoring run-time modified files using timeStampMaster (fileModificationSkew 10)
allowSystemOperations : Allowing user-supplied system call operations

// * * * * * * * * * * * * * * * * * * * * * * * * * * * * * * * * * * * * * //
Create time

This is an experimental tool which tries to merge individual processor
meshes back into one master mesh. Use it if the original master mesh has
been deleted or if the processor meshes have been modified (topology change).
This tool will write the resulting mesh to a new time step and construct
xxxxProcAddressing files in the processor meshes so reconstructPar can be
used to regenerate the fields on the master mesh.

Not well tested & use at your own risk!

Merge tolerance : 1e-06
Write tolerance : 1e-06
Doing geometric matching on correct procBoundaries only.
This assumes a correct decomposition.
Found 60 processor directories

Reading database "GTS_ofcomfinal/processor0"
Reading database "GTS_ofcomfinal/processor1"
Reading database "GTS_ofcomfinal/processor2"
Reading database "GTS_ofcomfinal/processor3"
Reading database "GTS_ofcomfinal/processor4"
Reading database "GTS_ofcomfinal/processor5"
Reading database "GTS_ofcomfinal/processor6"
Reading database "GTS_ofcomfinal/processor7"
Reading database "GTS_ofcomfinal/processor8"
Reading database "GTS_ofcomfinal/processor9"
Reading database "GTS_ofcomfinal/processor10"
Reading database "GTS_ofcomfinal/processor11"
Reading database "GTS_ofcomfinal/processor12"
Reading database "GTS_ofcomfinal/processor13"
Reading database "GTS_ofcomfinal/processor14"
Reading database "GTS_ofcomfinal/processor15"
Reading database "GTS_ofcomfinal/processor16"
Reading database "GTS_ofcomfinal/processor17"
Reading database "GTS_ofcomfinal/processor18"
Reading database "GTS_ofcomfinal/processor19"
Reading database "GTS_ofcomfinal/processor20"
Reading database "GTS_ofcomfinal/processor21"
Reading database "GTS_ofcomfinal/processor22"
Reading database "GTS_ofcomfinal/processor23"
Reading database "GTS_ofcomfinal/processor24"
Reading database "GTS_ofcomfinal/processor25"
Reading database "GTS_ofcomfinal/processor26"
Reading database "GTS_ofcomfinal/processor27"
Reading database "GTS_ofcomfinal/processor28"
Reading database "GTS_ofcomfinal/processor29"
Reading database "GTS_ofcomfinal/processor30"
Reading database "GTS_ofcomfinal/processor31"
Reading database "GTS_ofcomfinal/processor32"
Reading database "GTS_ofcomfinal/processor33"
Reading database "GTS_ofcomfinal/processor34"
Reading database "GTS_ofcomfinal/processor35"
Reading database "GTS_ofcomfinal/processor36"
Reading database "GTS_ofcomfinal/processor37"
Reading database "GTS_ofcomfinal/processor38"
Reading database "GTS_ofcomfinal/processor39"
Reading database "GTS_ofcomfinal/processor40"
Reading database "GTS_ofcomfinal/processor41"
Reading database "GTS_ofcomfinal/processor42"
Reading database "GTS_ofcomfinal/processor43"
Reading database "GTS_ofcomfinal/processor44"
Reading database "GTS_ofcomfinal/processor45"
Reading database "GTS_ofcomfinal/processor46"
Reading database "GTS_ofcomfinal/processor47"
Reading database "GTS_ofcomfinal/processor48"
Reading database "GTS_ofcomfinal/processor49"
Reading database "GTS_ofcomfinal/processor50"
Reading database "GTS_ofcomfinal/processor51"
Reading database "GTS_ofcomfinal/processor52"
Reading database "GTS_ofcomfinal/processor53"
Reading database "GTS_ofcomfinal/processor54"
Reading database "GTS_ofcomfinal/processor55"
Reading database "GTS_ofcomfinal/processor56"
Reading database "GTS_ofcomfinal/processor57"
Reading database "GTS_ofcomfinal/processor58"
Reading database "GTS_ofcomfinal/processor59"
Time = constant

Reading points from "GTS_ofcomfinal/processor0" for time = constant

Reading points from "GTS_ofcomfinal/processor1" for time = constant

Reading points from "GTS_ofcomfinal/processor2" for time = constant

Reading points from "GTS_ofcomfinal/processor3" for time = constant

Reading points from "GTS_ofcomfinal/processor4" for time = constant

Reading points from "GTS_ofcomfinal/processor5" for time = constant

Reading points from "GTS_ofcomfinal/processor6" for time = constant

Reading points from "GTS_ofcomfinal/processor7" for time = constant

Reading points from "GTS_ofcomfinal/processor8" for time = constant

Reading points from "GTS_ofcomfinal/processor9" for time = constant

Reading points from "GTS_ofcomfinal/processor10" for time = constant

Reading points from "GTS_ofcomfinal/processor11" for time = constant

Reading points from "GTS_ofcomfinal/processor12" for time = constant

Reading points from "GTS_ofcomfinal/processor13" for time = constant

Reading points from "GTS_ofcomfinal/processor14" for time = constant

Reading points from "GTS_ofcomfinal/processor15" for time = constant

Reading points from "GTS_ofcomfinal/processor16" for time = constant

Reading points from "GTS_ofcomfinal/processor17" for time = constant

Reading points from "GTS_ofcomfinal/processor18" for time = constant

Reading points from "GTS_ofcomfinal/processor19" for time = constant

Reading points from "GTS_ofcomfinal/processor20" for time = constant

Reading points from "GTS_ofcomfinal/processor21" for time = constant

Reading points from "GTS_ofcomfinal/processor22" for time = constant

Reading points from "GTS_ofcomfinal/processor23" for time = constant

Reading points from "GTS_ofcomfinal/processor24" for time = constant

Reading points from "GTS_ofcomfinal/processor25" for time = constant

Reading points from "GTS_ofcomfinal/processor26" for time = constant

Reading points from "GTS_ofcomfinal/processor27" for time = constant

Reading points from "GTS_ofcomfinal/processor28" for time = constant

Reading points from "GTS_ofcomfinal/processor29" for time = constant

Reading points from "GTS_ofcomfinal/processor30" for time = constant

Reading points from "GTS_ofcomfinal/processor31" for time = constant

Reading points from "GTS_ofcomfinal/processor32" for time = constant

Reading points from "GTS_ofcomfinal/processor33" for time = constant

Reading points from "GTS_ofcomfinal/processor34" for time = constant

Reading points from "GTS_ofcomfinal/processor35" for time = constant

Reading points from "GTS_ofcomfinal/processor36" for time = constant

Reading points from "GTS_ofcomfinal/processor37" for time = constant

Reading points from "GTS_ofcomfinal/processor38" for time = constant

Reading points from "GTS_ofcomfinal/processor39" for time = constant

Reading points from "GTS_ofcomfinal/processor40" for time = constant

Reading points from "GTS_ofcomfinal/processor41" for time = constant

Reading points from "GTS_ofcomfinal/processor42" for time = constant

Reading points from "GTS_ofcomfinal/processor43" for time = constant

Reading points from "GTS_ofcomfinal/processor44" for time = constant

Reading points from "GTS_ofcomfinal/processor45" for time = constant

Reading points from "GTS_ofcomfinal/processor46" for time = constant

Reading points from "GTS_ofcomfinal/processor47" for time = constant

Reading points from "GTS_ofcomfinal/processor48" for time = constant

Reading points from "GTS_ofcomfinal/processor49" for time = constant

Reading points from "GTS_ofcomfinal/processor50" for time = constant

Reading points from "GTS_ofcomfinal/processor51" for time = constant

Reading points from "GTS_ofcomfinal/processor52" for time = constant

Reading points from "GTS_ofcomfinal/processor53" for time = constant

Reading points from "GTS_ofcomfinal/processor54" for time = constant

Reading points from "GTS_ofcomfinal/processor55" for time = constant

Reading points from "GTS_ofcomfinal/processor56" for time = constant

Reading points from "GTS_ofcomfinal/processor57" for time = constant

Reading points from "GTS_ofcomfinal/processor58" for time = constant

Reading points from "GTS_ofcomfinal/processor59" for time = constant

Overall mesh bounding box  : (-7.41043 -1.6002 -0.1524) (4.47677 1.6002 2.1336)
Relative tolerance         : 1e-06
Absolute matching distance : 1.25209e-05

Merging mesh 0 with 1
Merging mesh 2 with 3
Merging mesh 4 with 5
Merging mesh 6 with 7
Merging mesh 8 with 9
Merging mesh 10 with 11
Merging mesh 12 with 13
Merging mesh 14 with 15
Merging mesh 16 with 17
Merging mesh 18 with 19
Merging mesh 20 with 21
Merging mesh 22 with 23
Merging mesh 24 with 25
Merging mesh 26 with 27
Merging mesh 28 with 29
Merging mesh 30 with 31
Merging mesh 32 with 33
Merging mesh 34 with 35
Merging mesh 36 with 37
Merging mesh 38 with 39
Merging mesh 40 with 41
Merging mesh 42 with 43
Merging mesh 44 with 45
Merging mesh 46 with 47
Merging mesh 48 with 49
Merging mesh 50 with 51
Merging mesh 52 with 53
Merging mesh 54 with 55
Merging mesh 56 with 57
Merging mesh 58 with 59
Merging mesh 0 with 2
Merging mesh 4 with 6
Merging mesh 8 with 10
Merging mesh 12 with 14
Merging mesh 16 with 18
Merging mesh 20 with 22
Merging mesh 24 with 26
Merging mesh 28 with 30
Merging mesh 32 with 34
Merging mesh 36 with 38
Merging mesh 40 with 42
Merging mesh 44 with 46
Merging mesh 48 with 50
Merging mesh 52 with 54
Merging mesh 56 with 58
Merging mesh 0 with 4
Merging mesh 8 with 12
Merging mesh 16 with 20
Merging mesh 24 with 28
Merging mesh 32 with 36
Merging mesh 40 with 44
Merging mesh 48 with 52
Merging mesh 0 with 8
Merging mesh 16 with 24
Merging mesh 32 with 40
Merging mesh 48 with 56
Merging mesh 0 with 16
Merging mesh 32 with 48
Merging mesh 0 with 32
Reading mesh to add from "GTS_ofcomfinal/processor0" for time = constant


Reading mesh to add from "GTS_ofcomfinal/processor1" for time = constant


Reading mesh to add from "GTS_ofcomfinal/processor2" for time = constant


Reading mesh to add from "GTS_ofcomfinal/processor3" for time = constant


Reading mesh to add from "GTS_ofcomfinal/processor4" for time = constant


Reading mesh to add from "GTS_ofcomfinal/processor5" for time = constant


Reading mesh to add from "GTS_ofcomfinal/processor6" for time = constant


Reading mesh to add from "GTS_ofcomfinal/processor7" for time = constant


Reading mesh to add from "GTS_ofcomfinal/processor8" for time = constant


Reading mesh to add from "GTS_ofcomfinal/processor9" for time = constant


Reading mesh to add from "GTS_ofcomfinal/processor10" for time = constant


Reading mesh to add from "GTS_ofcomfinal/processor11" for time = constant


Reading mesh to add from "GTS_ofcomfinal/processor12" for time = constant


Reading mesh to add from "GTS_ofcomfinal/processor13" for time = constant


Reading mesh to add from "GTS_ofcomfinal/processor14" for time = constant


Reading mesh to add from "GTS_ofcomfinal/processor15" for time = constant


Reading mesh to add from "GTS_ofcomfinal/processor16" for time = constant


Reading mesh to add from "GTS_ofcomfinal/processor17" for time = constant


Reading mesh to add from "GTS_ofcomfinal/processor18" for time = constant


Reading mesh to add from "GTS_ofcomfinal/processor19" for time = constant


Reading mesh to add from "GTS_ofcomfinal/processor20" for time = constant


Reading mesh to add from "GTS_ofcomfinal/processor21" for time = constant


Reading mesh to add from "GTS_ofcomfinal/processor22" for time = constant


Reading mesh to add from "GTS_ofcomfinal/processor23" for time = constant


Reading mesh to add from "GTS_ofcomfinal/processor24" for time = constant


Reading mesh to add from "GTS_ofcomfinal/processor25" for time = constant


Reading mesh to add from "GTS_ofcomfinal/processor26" for time = constant


Reading mesh to add from "GTS_ofcomfinal/processor27" for time = constant


Reading mesh to add from "GTS_ofcomfinal/processor28" for time = constant


Reading mesh to add from "GTS_ofcomfinal/processor29" for time = constant


Reading mesh to add from "GTS_ofcomfinal/processor30" for time = constant


Reading mesh to add from "GTS_ofcomfinal/processor31" for time = constant


Reading mesh to add from "GTS_ofcomfinal/processor32" for time = constant


Reading mesh to add from "GTS_ofcomfinal/processor33" for time = constant


Reading mesh to add from "GTS_ofcomfinal/processor34" for time = constant


Reading mesh to add from "GTS_ofcomfinal/processor35" for time = constant


Reading mesh to add from "GTS_ofcomfinal/processor36" for time = constant


Reading mesh to add from "GTS_ofcomfinal/processor37" for time = constant


Reading mesh to add from "GTS_ofcomfinal/processor38" for time = constant


Reading mesh to add from "GTS_ofcomfinal/processor39" for time = constant


Reading mesh to add from "GTS_ofcomfinal/processor40" for time = constant


Reading mesh to add from "GTS_ofcomfinal/processor41" for time = constant


Reading mesh to add from "GTS_ofcomfinal/processor42" for time = constant


Reading mesh to add from "GTS_ofcomfinal/processor43" for time = constant


Reading mesh to add from "GTS_ofcomfinal/processor44" for time = constant


Reading mesh to add from "GTS_ofcomfinal/processor45" for time = constant


Reading mesh to add from "GTS_ofcomfinal/processor46" for time = constant


Reading mesh to add from "GTS_ofcomfinal/processor47" for time = constant


Reading mesh to add from "GTS_ofcomfinal/processor48" for time = constant


Reading mesh to add from "GTS_ofcomfinal/processor49" for time = constant


Reading mesh to add from "GTS_ofcomfinal/processor50" for time = constant


Reading mesh to add from "GTS_ofcomfinal/processor51" for time = constant


Reading mesh to add from "GTS_ofcomfinal/processor52" for time = constant


Reading mesh to add from "GTS_ofcomfinal/processor53" for time = constant


Reading mesh to add from "GTS_ofcomfinal/processor54" for time = constant


Reading mesh to add from "GTS_ofcomfinal/processor55" for time = constant


Reading mesh to add from "GTS_ofcomfinal/processor56" for time = constant


Reading mesh to add from "GTS_ofcomfinal/processor57" for time = constant


Reading mesh to add from "GTS_ofcomfinal/processor58" for time = constant


Reading mesh to add from "GTS_ofcomfinal/processor59" for time = constant


mergeSharedPoints : detected 0 points that are to be merged.

Writing merged mesh to "/home/finzeo/storage/Mallas/test/GTS_ofcomfinal/constant"

Reconstructing the addressing from the processor meshes to the newly reconstructed mesh

Reading processor 0 mesh from "GTS_ofcomfinal/processor0"
Writing pointProcAddressing to "GTS_ofcomfinal/processor0/constant/polyMesh"
Writing faceProcAddressing to "GTS_ofcomfinal/processor0/constant/polyMesh"
Writing cellProcAddressing to "GTS_ofcomfinal/processor0/constant/polyMesh"
Writing boundaryProcAddressing to "GTS_ofcomfinal/processor0/constant/polyMesh"

Reading processor 1 mesh from "GTS_ofcomfinal/processor1"
Writing pointProcAddressing to "GTS_ofcomfinal/processor1/constant/polyMesh"
Writing faceProcAddressing to "GTS_ofcomfinal/processor1/constant/polyMesh"
Writing cellProcAddressing to "GTS_ofcomfinal/processor1/constant/polyMesh"
Writing boundaryProcAddressing to "GTS_ofcomfinal/processor1/constant/polyMesh"

Reading processor 2 mesh from "GTS_ofcomfinal/processor2"
Writing pointProcAddressing to "GTS_ofcomfinal/processor2/constant/polyMesh"
Writing faceProcAddressing to "GTS_ofcomfinal/processor2/constant/polyMesh"
Writing cellProcAddressing to "GTS_ofcomfinal/processor2/constant/polyMesh"
Writing boundaryProcAddressing to "GTS_ofcomfinal/processor2/constant/polyMesh"

Reading processor 3 mesh from "GTS_ofcomfinal/processor3"
Writing pointProcAddressing to "GTS_ofcomfinal/processor3/constant/polyMesh"
Writing faceProcAddressing to "GTS_ofcomfinal/processor3/constant/polyMesh"
Writing cellProcAddressing to "GTS_ofcomfinal/processor3/constant/polyMesh"
Writing boundaryProcAddressing to "GTS_ofcomfinal/processor3/constant/polyMesh"

Reading processor 4 mesh from "GTS_ofcomfinal/processor4"
Writing pointProcAddressing to "GTS_ofcomfinal/processor4/constant/polyMesh"
Writing faceProcAddressing to "GTS_ofcomfinal/processor4/constant/polyMesh"
Writing cellProcAddressing to "GTS_ofcomfinal/processor4/constant/polyMesh"
Writing boundaryProcAddressing to "GTS_ofcomfinal/processor4/constant/polyMesh"

Reading processor 5 mesh from "GTS_ofcomfinal/processor5"
Writing pointProcAddressing to "GTS_ofcomfinal/processor5/constant/polyMesh"
Writing faceProcAddressing to "GTS_ofcomfinal/processor5/constant/polyMesh"
Writing cellProcAddressing to "GTS_ofcomfinal/processor5/constant/polyMesh"
Writing boundaryProcAddressing to "GTS_ofcomfinal/processor5/constant/polyMesh"

Reading processor 6 mesh from "GTS_ofcomfinal/processor6"
Writing pointProcAddressing to "GTS_ofcomfinal/processor6/constant/polyMesh"
Writing faceProcAddressing to "GTS_ofcomfinal/processor6/constant/polyMesh"
Writing cellProcAddressing to "GTS_ofcomfinal/processor6/constant/polyMesh"
Writing boundaryProcAddressing to "GTS_ofcomfinal/processor6/constant/polyMesh"

Reading processor 7 mesh from "GTS_ofcomfinal/processor7"
Writing pointProcAddressing to "GTS_ofcomfinal/processor7/constant/polyMesh"
Writing faceProcAddressing to "GTS_ofcomfinal/processor7/constant/polyMesh"
Writing cellProcAddressing to "GTS_ofcomfinal/processor7/constant/polyMesh"
Writing boundaryProcAddressing to "GTS_ofcomfinal/processor7/constant/polyMesh"

Reading processor 8 mesh from "GTS_ofcomfinal/processor8"
Writing pointProcAddressing to "GTS_ofcomfinal/processor8/constant/polyMesh"
Writing faceProcAddressing to "GTS_ofcomfinal/processor8/constant/polyMesh"
Writing cellProcAddressing to "GTS_ofcomfinal/processor8/constant/polyMesh"
Writing boundaryProcAddressing to "GTS_ofcomfinal/processor8/constant/polyMesh"

Reading processor 9 mesh from "GTS_ofcomfinal/processor9"
Writing pointProcAddressing to "GTS_ofcomfinal/processor9/constant/polyMesh"
Writing faceProcAddressing to "GTS_ofcomfinal/processor9/constant/polyMesh"
Writing cellProcAddressing to "GTS_ofcomfinal/processor9/constant/polyMesh"
Writing boundaryProcAddressing to "GTS_ofcomfinal/processor9/constant/polyMesh"

Reading processor 10 mesh from "GTS_ofcomfinal/processor10"
Writing pointProcAddressing to "GTS_ofcomfinal/processor10/constant/polyMesh"
Writing faceProcAddressing to "GTS_ofcomfinal/processor10/constant/polyMesh"
Writing cellProcAddressing to "GTS_ofcomfinal/processor10/constant/polyMesh"
Writing boundaryProcAddressing to "GTS_ofcomfinal/processor10/constant/polyMesh"

Reading processor 11 mesh from "GTS_ofcomfinal/processor11"
Writing pointProcAddressing to "GTS_ofcomfinal/processor11/constant/polyMesh"
Writing faceProcAddressing to "GTS_ofcomfinal/processor11/constant/polyMesh"
Writing cellProcAddressing to "GTS_ofcomfinal/processor11/constant/polyMesh"
Writing boundaryProcAddressing to "GTS_ofcomfinal/processor11/constant/polyMesh"

Reading processor 12 mesh from "GTS_ofcomfinal/processor12"
Writing pointProcAddressing to "GTS_ofcomfinal/processor12/constant/polyMesh"
Writing faceProcAddressing to "GTS_ofcomfinal/processor12/constant/polyMesh"
Writing cellProcAddressing to "GTS_ofcomfinal/processor12/constant/polyMesh"
Writing boundaryProcAddressing to "GTS_ofcomfinal/processor12/constant/polyMesh"

Reading processor 13 mesh from "GTS_ofcomfinal/processor13"
Writing pointProcAddressing to "GTS_ofcomfinal/processor13/constant/polyMesh"
Writing faceProcAddressing to "GTS_ofcomfinal/processor13/constant/polyMesh"
Writing cellProcAddressing to "GTS_ofcomfinal/processor13/constant/polyMesh"
Writing boundaryProcAddressing to "GTS_ofcomfinal/processor13/constant/polyMesh"

Reading processor 14 mesh from "GTS_ofcomfinal/processor14"
Writing pointProcAddressing to "GTS_ofcomfinal/processor14/constant/polyMesh"
Writing faceProcAddressing to "GTS_ofcomfinal/processor14/constant/polyMesh"
Writing cellProcAddressing to "GTS_ofcomfinal/processor14/constant/polyMesh"
Writing boundaryProcAddressing to "GTS_ofcomfinal/processor14/constant/polyMesh"

Reading processor 15 mesh from "GTS_ofcomfinal/processor15"
Writing pointProcAddressing to "GTS_ofcomfinal/processor15/constant/polyMesh"
Writing faceProcAddressing to "GTS_ofcomfinal/processor15/constant/polyMesh"
Writing cellProcAddressing to "GTS_ofcomfinal/processor15/constant/polyMesh"
Writing boundaryProcAddressing to "GTS_ofcomfinal/processor15/constant/polyMesh"

Reading processor 16 mesh from "GTS_ofcomfinal/processor16"
Writing pointProcAddressing to "GTS_ofcomfinal/processor16/constant/polyMesh"
Writing faceProcAddressing to "GTS_ofcomfinal/processor16/constant/polyMesh"
Writing cellProcAddressing to "GTS_ofcomfinal/processor16/constant/polyMesh"
Writing boundaryProcAddressing to "GTS_ofcomfinal/processor16/constant/polyMesh"

Reading processor 17 mesh from "GTS_ofcomfinal/processor17"
Writing pointProcAddressing to "GTS_ofcomfinal/processor17/constant/polyMesh"
Writing faceProcAddressing to "GTS_ofcomfinal/processor17/constant/polyMesh"
Writing cellProcAddressing to "GTS_ofcomfinal/processor17/constant/polyMesh"
Writing boundaryProcAddressing to "GTS_ofcomfinal/processor17/constant/polyMesh"

Reading processor 18 mesh from "GTS_ofcomfinal/processor18"
Writing pointProcAddressing to "GTS_ofcomfinal/processor18/constant/polyMesh"
Writing faceProcAddressing to "GTS_ofcomfinal/processor18/constant/polyMesh"
Writing cellProcAddressing to "GTS_ofcomfinal/processor18/constant/polyMesh"
Writing boundaryProcAddressing to "GTS_ofcomfinal/processor18/constant/polyMesh"

Reading processor 19 mesh from "GTS_ofcomfinal/processor19"
Writing pointProcAddressing to "GTS_ofcomfinal/processor19/constant/polyMesh"
Writing faceProcAddressing to "GTS_ofcomfinal/processor19/constant/polyMesh"
Writing cellProcAddressing to "GTS_ofcomfinal/processor19/constant/polyMesh"
Writing boundaryProcAddressing to "GTS_ofcomfinal/processor19/constant/polyMesh"

Reading processor 20 mesh from "GTS_ofcomfinal/processor20"
Writing pointProcAddressing to "GTS_ofcomfinal/processor20/constant/polyMesh"
Writing faceProcAddressing to "GTS_ofcomfinal/processor20/constant/polyMesh"
Writing cellProcAddressing to "GTS_ofcomfinal/processor20/constant/polyMesh"
Writing boundaryProcAddressing to "GTS_ofcomfinal/processor20/constant/polyMesh"

Reading processor 21 mesh from "GTS_ofcomfinal/processor21"
Writing pointProcAddressing to "GTS_ofcomfinal/processor21/constant/polyMesh"
Writing faceProcAddressing to "GTS_ofcomfinal/processor21/constant/polyMesh"
Writing cellProcAddressing to "GTS_ofcomfinal/processor21/constant/polyMesh"
Writing boundaryProcAddressing to "GTS_ofcomfinal/processor21/constant/polyMesh"

Reading processor 22 mesh from "GTS_ofcomfinal/processor22"
Writing pointProcAddressing to "GTS_ofcomfinal/processor22/constant/polyMesh"
Writing faceProcAddressing to "GTS_ofcomfinal/processor22/constant/polyMesh"
Writing cellProcAddressing to "GTS_ofcomfinal/processor22/constant/polyMesh"
Writing boundaryProcAddressing to "GTS_ofcomfinal/processor22/constant/polyMesh"

Reading processor 23 mesh from "GTS_ofcomfinal/processor23"
Writing pointProcAddressing to "GTS_ofcomfinal/processor23/constant/polyMesh"
Writing faceProcAddressing to "GTS_ofcomfinal/processor23/constant/polyMesh"
Writing cellProcAddressing to "GTS_ofcomfinal/processor23/constant/polyMesh"
Writing boundaryProcAddressing to "GTS_ofcomfinal/processor23/constant/polyMesh"

Reading processor 24 mesh from "GTS_ofcomfinal/processor24"
Writing pointProcAddressing to "GTS_ofcomfinal/processor24/constant/polyMesh"
Writing faceProcAddressing to "GTS_ofcomfinal/processor24/constant/polyMesh"
Writing cellProcAddressing to "GTS_ofcomfinal/processor24/constant/polyMesh"
Writing boundaryProcAddressing to "GTS_ofcomfinal/processor24/constant/polyMesh"

Reading processor 25 mesh from "GTS_ofcomfinal/processor25"
Writing pointProcAddressing to "GTS_ofcomfinal/processor25/constant/polyMesh"
Writing faceProcAddressing to "GTS_ofcomfinal/processor25/constant/polyMesh"
Writing cellProcAddressing to "GTS_ofcomfinal/processor25/constant/polyMesh"
Writing boundaryProcAddressing to "GTS_ofcomfinal/processor25/constant/polyMesh"

Reading processor 26 mesh from "GTS_ofcomfinal/processor26"
Writing pointProcAddressing to "GTS_ofcomfinal/processor26/constant/polyMesh"
Writing faceProcAddressing to "GTS_ofcomfinal/processor26/constant/polyMesh"
Writing cellProcAddressing to "GTS_ofcomfinal/processor26/constant/polyMesh"
Writing boundaryProcAddressing to "GTS_ofcomfinal/processor26/constant/polyMesh"

Reading processor 27 mesh from "GTS_ofcomfinal/processor27"
Writing pointProcAddressing to "GTS_ofcomfinal/processor27/constant/polyMesh"
Writing faceProcAddressing to "GTS_ofcomfinal/processor27/constant/polyMesh"
Writing cellProcAddressing to "GTS_ofcomfinal/processor27/constant/polyMesh"
Writing boundaryProcAddressing to "GTS_ofcomfinal/processor27/constant/polyMesh"

Reading processor 28 mesh from "GTS_ofcomfinal/processor28"
Writing pointProcAddressing to "GTS_ofcomfinal/processor28/constant/polyMesh"
Writing faceProcAddressing to "GTS_ofcomfinal/processor28/constant/polyMesh"
Writing cellProcAddressing to "GTS_ofcomfinal/processor28/constant/polyMesh"
Writing boundaryProcAddressing to "GTS_ofcomfinal/processor28/constant/polyMesh"

Reading processor 29 mesh from "GTS_ofcomfinal/processor29"
Writing pointProcAddressing to "GTS_ofcomfinal/processor29/constant/polyMesh"
Writing faceProcAddressing to "GTS_ofcomfinal/processor29/constant/polyMesh"
Writing cellProcAddressing to "GTS_ofcomfinal/processor29/constant/polyMesh"
Writing boundaryProcAddressing to "GTS_ofcomfinal/processor29/constant/polyMesh"

Reading processor 30 mesh from "GTS_ofcomfinal/processor30"
Writing pointProcAddressing to "GTS_ofcomfinal/processor30/constant/polyMesh"
Writing faceProcAddressing to "GTS_ofcomfinal/processor30/constant/polyMesh"
Writing cellProcAddressing to "GTS_ofcomfinal/processor30/constant/polyMesh"
Writing boundaryProcAddressing to "GTS_ofcomfinal/processor30/constant/polyMesh"

Reading processor 31 mesh from "GTS_ofcomfinal/processor31"
Writing pointProcAddressing to "GTS_ofcomfinal/processor31/constant/polyMesh"
Writing faceProcAddressing to "GTS_ofcomfinal/processor31/constant/polyMesh"
Writing cellProcAddressing to "GTS_ofcomfinal/processor31/constant/polyMesh"
Writing boundaryProcAddressing to "GTS_ofcomfinal/processor31/constant/polyMesh"

Reading processor 32 mesh from "GTS_ofcomfinal/processor32"
Writing pointProcAddressing to "GTS_ofcomfinal/processor32/constant/polyMesh"
Writing faceProcAddressing to "GTS_ofcomfinal/processor32/constant/polyMesh"
Writing cellProcAddressing to "GTS_ofcomfinal/processor32/constant/polyMesh"
Writing boundaryProcAddressing to "GTS_ofcomfinal/processor32/constant/polyMesh"

Reading processor 33 mesh from "GTS_ofcomfinal/processor33"
Writing pointProcAddressing to "GTS_ofcomfinal/processor33/constant/polyMesh"
Writing faceProcAddressing to "GTS_ofcomfinal/processor33/constant/polyMesh"
Writing cellProcAddressing to "GTS_ofcomfinal/processor33/constant/polyMesh"
Writing boundaryProcAddressing to "GTS_ofcomfinal/processor33/constant/polyMesh"

Reading processor 34 mesh from "GTS_ofcomfinal/processor34"
Writing pointProcAddressing to "GTS_ofcomfinal/processor34/constant/polyMesh"
Writing faceProcAddressing to "GTS_ofcomfinal/processor34/constant/polyMesh"
Writing cellProcAddressing to "GTS_ofcomfinal/processor34/constant/polyMesh"
Writing boundaryProcAddressing to "GTS_ofcomfinal/processor34/constant/polyMesh"

Reading processor 35 mesh from "GTS_ofcomfinal/processor35"
Writing pointProcAddressing to "GTS_ofcomfinal/processor35/constant/polyMesh"
Writing faceProcAddressing to "GTS_ofcomfinal/processor35/constant/polyMesh"
Writing cellProcAddressing to "GTS_ofcomfinal/processor35/constant/polyMesh"
Writing boundaryProcAddressing to "GTS_ofcomfinal/processor35/constant/polyMesh"

Reading processor 36 mesh from "GTS_ofcomfinal/processor36"
Writing pointProcAddressing to "GTS_ofcomfinal/processor36/constant/polyMesh"
Writing faceProcAddressing to "GTS_ofcomfinal/processor36/constant/polyMesh"
Writing cellProcAddressing to "GTS_ofcomfinal/processor36/constant/polyMesh"
Writing boundaryProcAddressing to "GTS_ofcomfinal/processor36/constant/polyMesh"

Reading processor 37 mesh from "GTS_ofcomfinal/processor37"
Writing pointProcAddressing to "GTS_ofcomfinal/processor37/constant/polyMesh"
Writing faceProcAddressing to "GTS_ofcomfinal/processor37/constant/polyMesh"
Writing cellProcAddressing to "GTS_ofcomfinal/processor37/constant/polyMesh"
Writing boundaryProcAddressing to "GTS_ofcomfinal/processor37/constant/polyMesh"

Reading processor 38 mesh from "GTS_ofcomfinal/processor38"
Writing pointProcAddressing to "GTS_ofcomfinal/processor38/constant/polyMesh"
Writing faceProcAddressing to "GTS_ofcomfinal/processor38/constant/polyMesh"
Writing cellProcAddressing to "GTS_ofcomfinal/processor38/constant/polyMesh"
Writing boundaryProcAddressing to "GTS_ofcomfinal/processor38/constant/polyMesh"

Reading processor 39 mesh from "GTS_ofcomfinal/processor39"
Writing pointProcAddressing to "GTS_ofcomfinal/processor39/constant/polyMesh"
Writing faceProcAddressing to "GTS_ofcomfinal/processor39/constant/polyMesh"
Writing cellProcAddressing to "GTS_ofcomfinal/processor39/constant/polyMesh"
Writing boundaryProcAddressing to "GTS_ofcomfinal/processor39/constant/polyMesh"

Reading processor 40 mesh from "GTS_ofcomfinal/processor40"
Writing pointProcAddressing to "GTS_ofcomfinal/processor40/constant/polyMesh"
Writing faceProcAddressing to "GTS_ofcomfinal/processor40/constant/polyMesh"
Writing cellProcAddressing to "GTS_ofcomfinal/processor40/constant/polyMesh"
Writing boundaryProcAddressing to "GTS_ofcomfinal/processor40/constant/polyMesh"

Reading processor 41 mesh from "GTS_ofcomfinal/processor41"
Writing pointProcAddressing to "GTS_ofcomfinal/processor41/constant/polyMesh"
Writing faceProcAddressing to "GTS_ofcomfinal/processor41/constant/polyMesh"
Writing cellProcAddressing to "GTS_ofcomfinal/processor41/constant/polyMesh"
Writing boundaryProcAddressing to "GTS_ofcomfinal/processor41/constant/polyMesh"

Reading processor 42 mesh from "GTS_ofcomfinal/processor42"
Writing pointProcAddressing to "GTS_ofcomfinal/processor42/constant/polyMesh"
Writing faceProcAddressing to "GTS_ofcomfinal/processor42/constant/polyMesh"
Writing cellProcAddressing to "GTS_ofcomfinal/processor42/constant/polyMesh"
Writing boundaryProcAddressing to "GTS_ofcomfinal/processor42/constant/polyMesh"

Reading processor 43 mesh from "GTS_ofcomfinal/processor43"
Writing pointProcAddressing to "GTS_ofcomfinal/processor43/constant/polyMesh"
Writing faceProcAddressing to "GTS_ofcomfinal/processor43/constant/polyMesh"
Writing cellProcAddressing to "GTS_ofcomfinal/processor43/constant/polyMesh"
Writing boundaryProcAddressing to "GTS_ofcomfinal/processor43/constant/polyMesh"

Reading processor 44 mesh from "GTS_ofcomfinal/processor44"
Writing pointProcAddressing to "GTS_ofcomfinal/processor44/constant/polyMesh"
Writing faceProcAddressing to "GTS_ofcomfinal/processor44/constant/polyMesh"
Writing cellProcAddressing to "GTS_ofcomfinal/processor44/constant/polyMesh"
Writing boundaryProcAddressing to "GTS_ofcomfinal/processor44/constant/polyMesh"

Reading processor 45 mesh from "GTS_ofcomfinal/processor45"
Writing pointProcAddressing to "GTS_ofcomfinal/processor45/constant/polyMesh"
Writing faceProcAddressing to "GTS_ofcomfinal/processor45/constant/polyMesh"
Writing cellProcAddressing to "GTS_ofcomfinal/processor45/constant/polyMesh"
Writing boundaryProcAddressing to "GTS_ofcomfinal/processor45/constant/polyMesh"

Reading processor 46 mesh from "GTS_ofcomfinal/processor46"
Writing pointProcAddressing to "GTS_ofcomfinal/processor46/constant/polyMesh"
Writing faceProcAddressing to "GTS_ofcomfinal/processor46/constant/polyMesh"
Writing cellProcAddressing to "GTS_ofcomfinal/processor46/constant/polyMesh"
Writing boundaryProcAddressing to "GTS_ofcomfinal/processor46/constant/polyMesh"

Reading processor 47 mesh from "GTS_ofcomfinal/processor47"
Writing pointProcAddressing to "GTS_ofcomfinal/processor47/constant/polyMesh"
Writing faceProcAddressing to "GTS_ofcomfinal/processor47/constant/polyMesh"
Writing cellProcAddressing to "GTS_ofcomfinal/processor47/constant/polyMesh"
Writing boundaryProcAddressing to "GTS_ofcomfinal/processor47/constant/polyMesh"

Reading processor 48 mesh from "GTS_ofcomfinal/processor48"
Writing pointProcAddressing to "GTS_ofcomfinal/processor48/constant/polyMesh"
Writing faceProcAddressing to "GTS_ofcomfinal/processor48/constant/polyMesh"
Writing cellProcAddressing to "GTS_ofcomfinal/processor48/constant/polyMesh"
Writing boundaryProcAddressing to "GTS_ofcomfinal/processor48/constant/polyMesh"

Reading processor 49 mesh from "GTS_ofcomfinal/processor49"
Writing pointProcAddressing to "GTS_ofcomfinal/processor49/constant/polyMesh"
Writing faceProcAddressing to "GTS_ofcomfinal/processor49/constant/polyMesh"
Writing cellProcAddressing to "GTS_ofcomfinal/processor49/constant/polyMesh"
Writing boundaryProcAddressing to "GTS_ofcomfinal/processor49/constant/polyMesh"

Reading processor 50 mesh from "GTS_ofcomfinal/processor50"
Writing pointProcAddressing to "GTS_ofcomfinal/processor50/constant/polyMesh"
Writing faceProcAddressing to "GTS_ofcomfinal/processor50/constant/polyMesh"
Writing cellProcAddressing to "GTS_ofcomfinal/processor50/constant/polyMesh"
Writing boundaryProcAddressing to "GTS_ofcomfinal/processor50/constant/polyMesh"

Reading processor 51 mesh from "GTS_ofcomfinal/processor51"
Writing pointProcAddressing to "GTS_ofcomfinal/processor51/constant/polyMesh"
Writing faceProcAddressing to "GTS_ofcomfinal/processor51/constant/polyMesh"
Writing cellProcAddressing to "GTS_ofcomfinal/processor51/constant/polyMesh"
Writing boundaryProcAddressing to "GTS_ofcomfinal/processor51/constant/polyMesh"

Reading processor 52 mesh from "GTS_ofcomfinal/processor52"
Writing pointProcAddressing to "GTS_ofcomfinal/processor52/constant/polyMesh"
Writing faceProcAddressing to "GTS_ofcomfinal/processor52/constant/polyMesh"
Writing cellProcAddressing to "GTS_ofcomfinal/processor52/constant/polyMesh"
Writing boundaryProcAddressing to "GTS_ofcomfinal/processor52/constant/polyMesh"

Reading processor 53 mesh from "GTS_ofcomfinal/processor53"
Writing pointProcAddressing to "GTS_ofcomfinal/processor53/constant/polyMesh"
Writing faceProcAddressing to "GTS_ofcomfinal/processor53/constant/polyMesh"
Writing cellProcAddressing to "GTS_ofcomfinal/processor53/constant/polyMesh"
Writing boundaryProcAddressing to "GTS_ofcomfinal/processor53/constant/polyMesh"

Reading processor 54 mesh from "GTS_ofcomfinal/processor54"
Writing pointProcAddressing to "GTS_ofcomfinal/processor54/constant/polyMesh"
Writing faceProcAddressing to "GTS_ofcomfinal/processor54/constant/polyMesh"
Writing cellProcAddressing to "GTS_ofcomfinal/processor54/constant/polyMesh"
Writing boundaryProcAddressing to "GTS_ofcomfinal/processor54/constant/polyMesh"

Reading processor 55 mesh from "GTS_ofcomfinal/processor55"
Writing pointProcAddressing to "GTS_ofcomfinal/processor55/constant/polyMesh"
Writing faceProcAddressing to "GTS_ofcomfinal/processor55/constant/polyMesh"
Writing cellProcAddressing to "GTS_ofcomfinal/processor55/constant/polyMesh"
Writing boundaryProcAddressing to "GTS_ofcomfinal/processor55/constant/polyMesh"

Reading processor 56 mesh from "GTS_ofcomfinal/processor56"
Writing pointProcAddressing to "GTS_ofcomfinal/processor56/constant/polyMesh"
Writing faceProcAddressing to "GTS_ofcomfinal/processor56/constant/polyMesh"
Writing cellProcAddressing to "GTS_ofcomfinal/processor56/constant/polyMesh"
Writing boundaryProcAddressing to "GTS_ofcomfinal/processor56/constant/polyMesh"

Reading processor 57 mesh from "GTS_ofcomfinal/processor57"
Writing pointProcAddressing to "GTS_ofcomfinal/processor57/constant/polyMesh"
Writing faceProcAddressing to "GTS_ofcomfinal/processor57/constant/polyMesh"
Writing cellProcAddressing to "GTS_ofcomfinal/processor57/constant/polyMesh"
Writing boundaryProcAddressing to "GTS_ofcomfinal/processor57/constant/polyMesh"

Reading processor 58 mesh from "GTS_ofcomfinal/processor58"
Writing pointProcAddressing to "GTS_ofcomfinal/processor58/constant/polyMesh"
Writing faceProcAddressing to "GTS_ofcomfinal/processor58/constant/polyMesh"
Writing cellProcAddressing to "GTS_ofcomfinal/processor58/constant/polyMesh"
Writing boundaryProcAddressing to "GTS_ofcomfinal/processor58/constant/polyMesh"

Reading processor 59 mesh from "GTS_ofcomfinal/processor59"
Writing pointProcAddressing to "GTS_ofcomfinal/processor59/constant/polyMesh"
Writing faceProcAddressing to "GTS_ofcomfinal/processor59/constant/polyMesh"
Writing cellProcAddressing to "GTS_ofcomfinal/processor59/constant/polyMesh"
Writing boundaryProcAddressing to "GTS_ofcomfinal/processor59/constant/polyMesh"

Time = 1

Reading points from "GTS_ofcomfinal/processor0" for time = 1

Reading points from "GTS_ofcomfinal/processor1" for time = 1

Reading points from "GTS_ofcomfinal/processor2" for time = 1

Reading points from "GTS_ofcomfinal/processor3" for time = 1

Reading points from "GTS_ofcomfinal/processor4" for time = 1

Reading points from "GTS_ofcomfinal/processor5" for time = 1

Reading points from "GTS_ofcomfinal/processor6" for time = 1

Reading points from "GTS_ofcomfinal/processor7" for time = 1

Reading points from "GTS_ofcomfinal/processor8" for time = 1

Reading points from "GTS_ofcomfinal/processor9" for time = 1

Reading points from "GTS_ofcomfinal/processor10" for time = 1

Reading points from "GTS_ofcomfinal/processor11" for time = 1

Reading points from "GTS_ofcomfinal/processor12" for time = 1

Reading points from "GTS_ofcomfinal/processor13" for time = 1

Reading points from "GTS_ofcomfinal/processor14" for time = 1

Reading points from "GTS_ofcomfinal/processor15" for time = 1

Reading points from "GTS_ofcomfinal/processor16" for time = 1

Reading points from "GTS_ofcomfinal/processor17" for time = 1

Reading points from "GTS_ofcomfinal/processor18" for time = 1

Reading points from "GTS_ofcomfinal/processor19" for time = 1

Reading points from "GTS_ofcomfinal/processor20" for time = 1

Reading points from "GTS_ofcomfinal/processor21" for time = 1

Reading points from "GTS_ofcomfinal/processor22" for time = 1

Reading points from "GTS_ofcomfinal/processor23" for time = 1

Reading points from "GTS_ofcomfinal/processor24" for time = 1

Reading points from "GTS_ofcomfinal/processor25" for time = 1

Reading points from "GTS_ofcomfinal/processor26" for time = 1

Reading points from "GTS_ofcomfinal/processor27" for time = 1

Reading points from "GTS_ofcomfinal/processor28" for time = 1

Reading points from "GTS_ofcomfinal/processor29" for time = 1

Reading points from "GTS_ofcomfinal/processor30" for time = 1

Reading points from "GTS_ofcomfinal/processor31" for time = 1

Reading points from "GTS_ofcomfinal/processor32" for time = 1

Reading points from "GTS_ofcomfinal/processor33" for time = 1

Reading points from "GTS_ofcomfinal/processor34" for time = 1

Reading points from "GTS_ofcomfinal/processor35" for time = 1

Reading points from "GTS_ofcomfinal/processor36" for time = 1

Reading points from "GTS_ofcomfinal/processor37" for time = 1

Reading points from "GTS_ofcomfinal/processor38" for time = 1

Reading points from "GTS_ofcomfinal/processor39" for time = 1

Reading points from "GTS_ofcomfinal/processor40" for time = 1

Reading points from "GTS_ofcomfinal/processor41" for time = 1

Reading points from "GTS_ofcomfinal/processor42" for time = 1

Reading points from "GTS_ofcomfinal/processor43" for time = 1

Reading points from "GTS_ofcomfinal/processor44" for time = 1

Reading points from "GTS_ofcomfinal/processor45" for time = 1

Reading points from "GTS_ofcomfinal/processor46" for time = 1

Reading points from "GTS_ofcomfinal/processor47" for time = 1

Reading points from "GTS_ofcomfinal/processor48" for time = 1

Reading points from "GTS_ofcomfinal/processor49" for time = 1

Reading points from "GTS_ofcomfinal/processor50" for time = 1

Reading points from "GTS_ofcomfinal/processor51" for time = 1

Reading points from "GTS_ofcomfinal/processor52" for time = 1

Reading points from "GTS_ofcomfinal/processor53" for time = 1

Reading points from "GTS_ofcomfinal/processor54" for time = 1

Reading points from "GTS_ofcomfinal/processor55" for time = 1

Reading points from "GTS_ofcomfinal/processor56" for time = 1

Reading points from "GTS_ofcomfinal/processor57" for time = 1

Reading points from "GTS_ofcomfinal/processor58" for time = 1

Reading points from "GTS_ofcomfinal/processor59" for time = 1

Overall mesh bounding box  : (-7.33423 -1.524 -0.0762) (4.40057 1.524 2.0574)
Relative tolerance         : 1e-06
Absolute matching distance : 1.23105e-05

Merging mesh 0 with 1
Merging mesh 2 with 3
Merging mesh 4 with 5
Merging mesh 6 with 7
Merging mesh 8 with 9
Merging mesh 10 with 11
Merging mesh 12 with 13
Merging mesh 14 with 15
Merging mesh 16 with 17
Merging mesh 18 with 19
Merging mesh 20 with 21
Merging mesh 22 with 23
Merging mesh 24 with 25
Merging mesh 26 with 27
Merging mesh 28 with 29
Merging mesh 30 with 31
Merging mesh 32 with 33
Merging mesh 34 with 35
Merging mesh 36 with 37
Merging mesh 38 with 39
Merging mesh 40 with 41
Merging mesh 42 with 43
Merging mesh 44 with 45
Merging mesh 46 with 47
Merging mesh 48 with 49
Merging mesh 50 with 51
Merging mesh 52 with 53
Merging mesh 54 with 55
Merging mesh 56 with 57
Merging mesh 58 with 59
Merging mesh 0 with 2
Merging mesh 4 with 6
Merging mesh 8 with 10
Merging mesh 12 with 14
Merging mesh 16 with 18
Merging mesh 20 with 22
Merging mesh 24 with 26
Merging mesh 28 with 30
Merging mesh 32 with 34
Merging mesh 36 with 38
Merging mesh 40 with 42
Merging mesh 44 with 46
Merging mesh 48 with 50
Merging mesh 52 with 54
Merging mesh 56 with 58
Merging mesh 0 with 4
Merging mesh 8 with 12
Merging mesh 16 with 20
Merging mesh 24 with 28
Merging mesh 32 with 36
Merging mesh 40 with 44
Merging mesh 48 with 52
Merging mesh 0 with 8
Merging mesh 16 with 24
Merging mesh 32 with 40
Merging mesh 48 with 56
Merging mesh 0 with 16
Merging mesh 32 with 48
Merging mesh 0 with 32
Reading mesh to add from "GTS_ofcomfinal/processor0" for time = 1


Reading mesh to add from "GTS_ofcomfinal/processor1" for time = 1


Reading mesh to add from "GTS_ofcomfinal/processor2" for time = 1


Reading mesh to add from "GTS_ofcomfinal/processor3" for time = 1


Reading mesh to add from "GTS_ofcomfinal/processor4" for time = 1


Reading mesh to add from "GTS_ofcomfinal/processor5" for time = 1


Reading mesh to add from "GTS_ofcomfinal/processor6" for time = 1


Reading mesh to add from "GTS_ofcomfinal/processor7" for time = 1


Reading mesh to add from "GTS_ofcomfinal/processor8" for time = 1


Reading mesh to add from "GTS_ofcomfinal/processor9" for time = 1


Reading mesh to add from "GTS_ofcomfinal/processor10" for time = 1


Reading mesh to add from "GTS_ofcomfinal/processor11" for time = 1


Reading mesh to add from "GTS_ofcomfinal/processor12" for time = 1


Reading mesh to add from "GTS_ofcomfinal/processor13" for time = 1


Reading mesh to add from "GTS_ofcomfinal/processor14" for time = 1


Reading mesh to add from "GTS_ofcomfinal/processor15" for time = 1


Reading mesh to add from "GTS_ofcomfinal/processor16" for time = 1


Reading mesh to add from "GTS_ofcomfinal/processor17" for time = 1


Reading mesh to add from "GTS_ofcomfinal/processor18" for time = 1


Reading mesh to add from "GTS_ofcomfinal/processor19" for time = 1


Reading mesh to add from "GTS_ofcomfinal/processor20" for time = 1


Reading mesh to add from "GTS_ofcomfinal/processor21" for time = 1


Reading mesh to add from "GTS_ofcomfinal/processor22" for time = 1


Reading mesh to add from "GTS_ofcomfinal/processor23" for time = 1


Reading mesh to add from "GTS_ofcomfinal/processor24" for time = 1


Reading mesh to add from "GTS_ofcomfinal/processor25" for time = 1


Reading mesh to add from "GTS_ofcomfinal/processor26" for time = 1


Reading mesh to add from "GTS_ofcomfinal/processor27" for time = 1


Reading mesh to add from "GTS_ofcomfinal/processor28" for time = 1


Reading mesh to add from "GTS_ofcomfinal/processor29" for time = 1


Reading mesh to add from "GTS_ofcomfinal/processor30" for time = 1


Reading mesh to add from "GTS_ofcomfinal/processor31" for time = 1


Reading mesh to add from "GTS_ofcomfinal/processor32" for time = 1


Reading mesh to add from "GTS_ofcomfinal/processor33" for time = 1


Reading mesh to add from "GTS_ofcomfinal/processor34" for time = 1


Reading mesh to add from "GTS_ofcomfinal/processor35" for time = 1


Reading mesh to add from "GTS_ofcomfinal/processor36" for time = 1


Reading mesh to add from "GTS_ofcomfinal/processor37" for time = 1


Reading mesh to add from "GTS_ofcomfinal/processor38" for time = 1


Reading mesh to add from "GTS_ofcomfinal/processor39" for time = 1


Reading mesh to add from "GTS_ofcomfinal/processor40" for time = 1


Reading mesh to add from "GTS_ofcomfinal/processor41" for time = 1


Reading mesh to add from "GTS_ofcomfinal/processor42" for time = 1


Reading mesh to add from "GTS_ofcomfinal/processor43" for time = 1


Reading mesh to add from "GTS_ofcomfinal/processor44" for time = 1


Reading mesh to add from "GTS_ofcomfinal/processor45" for time = 1


Reading mesh to add from "GTS_ofcomfinal/processor46" for time = 1


Reading mesh to add from "GTS_ofcomfinal/processor47" for time = 1


Reading mesh to add from "GTS_ofcomfinal/processor48" for time = 1


Reading mesh to add from "GTS_ofcomfinal/processor49" for time = 1


Reading mesh to add from "GTS_ofcomfinal/processor50" for time = 1


Reading mesh to add from "GTS_ofcomfinal/processor51" for time = 1


Reading mesh to add from "GTS_ofcomfinal/processor52" for time = 1


Reading mesh to add from "GTS_ofcomfinal/processor53" for time = 1


Reading mesh to add from "GTS_ofcomfinal/processor54" for time = 1


Reading mesh to add from "GTS_ofcomfinal/processor55" for time = 1


Reading mesh to add from "GTS_ofcomfinal/processor56" for time = 1


Reading mesh to add from "GTS_ofcomfinal/processor57" for time = 1


Reading mesh to add from "GTS_ofcomfinal/processor58" for time = 1


Reading mesh to add from "GTS_ofcomfinal/processor59" for time = 1


mergeSharedPoints : detected 0 points that are to be merged.

Writing merged mesh to "/home/finzeo/storage/Mallas/test/GTS_ofcomfinal/1"

Reconstructing the addressing from the processor meshes to the newly reconstructed mesh

Reading processor 0 mesh from "GTS_ofcomfinal/processor0"
Writing pointProcAddressing to "GTS_ofcomfinal/processor0/1/polyMesh"
Writing faceProcAddressing to "GTS_ofcomfinal/processor0/1/polyMesh"
Writing cellProcAddressing to "GTS_ofcomfinal/processor0/1/polyMesh"
Writing boundaryProcAddressing to "GTS_ofcomfinal/processor0/1/polyMesh"

Reading processor 1 mesh from "GTS_ofcomfinal/processor1"
Writing pointProcAddressing to "GTS_ofcomfinal/processor1/1/polyMesh"
Writing faceProcAddressing to "GTS_ofcomfinal/processor1/1/polyMesh"
Writing cellProcAddressing to "GTS_ofcomfinal/processor1/1/polyMesh"
Writing boundaryProcAddressing to "GTS_ofcomfinal/processor1/1/polyMesh"

Reading processor 2 mesh from "GTS_ofcomfinal/processor2"
Writing pointProcAddressing to "GTS_ofcomfinal/processor2/1/polyMesh"
Writing faceProcAddressing to "GTS_ofcomfinal/processor2/1/polyMesh"
Writing cellProcAddressing to "GTS_ofcomfinal/processor2/1/polyMesh"
Writing boundaryProcAddressing to "GTS_ofcomfinal/processor2/1/polyMesh"

Reading processor 3 mesh from "GTS_ofcomfinal/processor3"
Writing pointProcAddressing to "GTS_ofcomfinal/processor3/1/polyMesh"
Writing faceProcAddressing to "GTS_ofcomfinal/processor3/1/polyMesh"
Writing cellProcAddressing to "GTS_ofcomfinal/processor3/1/polyMesh"
Writing boundaryProcAddressing to "GTS_ofcomfinal/processor3/1/polyMesh"

Reading processor 4 mesh from "GTS_ofcomfinal/processor4"
Writing pointProcAddressing to "GTS_ofcomfinal/processor4/1/polyMesh"
Writing faceProcAddressing to "GTS_ofcomfinal/processor4/1/polyMesh"
Writing cellProcAddressing to "GTS_ofcomfinal/processor4/1/polyMesh"
Writing boundaryProcAddressing to "GTS_ofcomfinal/processor4/1/polyMesh"

Reading processor 5 mesh from "GTS_ofcomfinal/processor5"
Writing pointProcAddressing to "GTS_ofcomfinal/processor5/1/polyMesh"
Writing faceProcAddressing to "GTS_ofcomfinal/processor5/1/polyMesh"
Writing cellProcAddressing to "GTS_ofcomfinal/processor5/1/polyMesh"
Writing boundaryProcAddressing to "GTS_ofcomfinal/processor5/1/polyMesh"

Reading processor 6 mesh from "GTS_ofcomfinal/processor6"
Writing pointProcAddressing to "GTS_ofcomfinal/processor6/1/polyMesh"
Writing faceProcAddressing to "GTS_ofcomfinal/processor6/1/polyMesh"
Writing cellProcAddressing to "GTS_ofcomfinal/processor6/1/polyMesh"
Writing boundaryProcAddressing to "GTS_ofcomfinal/processor6/1/polyMesh"

Reading processor 7 mesh from "GTS_ofcomfinal/processor7"
Writing pointProcAddressing to "GTS_ofcomfinal/processor7/1/polyMesh"
Writing faceProcAddressing to "GTS_ofcomfinal/processor7/1/polyMesh"
Writing cellProcAddressing to "GTS_ofcomfinal/processor7/1/polyMesh"
Writing boundaryProcAddressing to "GTS_ofcomfinal/processor7/1/polyMesh"

Reading processor 8 mesh from "GTS_ofcomfinal/processor8"
Writing pointProcAddressing to "GTS_ofcomfinal/processor8/1/polyMesh"
Writing faceProcAddressing to "GTS_ofcomfinal/processor8/1/polyMesh"
Writing cellProcAddressing to "GTS_ofcomfinal/processor8/1/polyMesh"
Writing boundaryProcAddressing to "GTS_ofcomfinal/processor8/1/polyMesh"

Reading processor 9 mesh from "GTS_ofcomfinal/processor9"
Writing pointProcAddressing to "GTS_ofcomfinal/processor9/1/polyMesh"
Writing faceProcAddressing to "GTS_ofcomfinal/processor9/1/polyMesh"
Writing cellProcAddressing to "GTS_ofcomfinal/processor9/1/polyMesh"
Writing boundaryProcAddressing to "GTS_ofcomfinal/processor9/1/polyMesh"

Reading processor 10 mesh from "GTS_ofcomfinal/processor10"
Writing pointProcAddressing to "GTS_ofcomfinal/processor10/1/polyMesh"
Writing faceProcAddressing to "GTS_ofcomfinal/processor10/1/polyMesh"
Writing cellProcAddressing to "GTS_ofcomfinal/processor10/1/polyMesh"
Writing boundaryProcAddressing to "GTS_ofcomfinal/processor10/1/polyMesh"

Reading processor 11 mesh from "GTS_ofcomfinal/processor11"
Writing pointProcAddressing to "GTS_ofcomfinal/processor11/1/polyMesh"
Writing faceProcAddressing to "GTS_ofcomfinal/processor11/1/polyMesh"
Writing cellProcAddressing to "GTS_ofcomfinal/processor11/1/polyMesh"
Writing boundaryProcAddressing to "GTS_ofcomfinal/processor11/1/polyMesh"

Reading processor 12 mesh from "GTS_ofcomfinal/processor12"
Writing pointProcAddressing to "GTS_ofcomfinal/processor12/1/polyMesh"
Writing faceProcAddressing to "GTS_ofcomfinal/processor12/1/polyMesh"
Writing cellProcAddressing to "GTS_ofcomfinal/processor12/1/polyMesh"
Writing boundaryProcAddressing to "GTS_ofcomfinal/processor12/1/polyMesh"

Reading processor 13 mesh from "GTS_ofcomfinal/processor13"
Writing pointProcAddressing to "GTS_ofcomfinal/processor13/1/polyMesh"
Writing faceProcAddressing to "GTS_ofcomfinal/processor13/1/polyMesh"
Writing cellProcAddressing to "GTS_ofcomfinal/processor13/1/polyMesh"
Writing boundaryProcAddressing to "GTS_ofcomfinal/processor13/1/polyMesh"

Reading processor 14 mesh from "GTS_ofcomfinal/processor14"
Writing pointProcAddressing to "GTS_ofcomfinal/processor14/1/polyMesh"
Writing faceProcAddressing to "GTS_ofcomfinal/processor14/1/polyMesh"
Writing cellProcAddressing to "GTS_ofcomfinal/processor14/1/polyMesh"
Writing boundaryProcAddressing to "GTS_ofcomfinal/processor14/1/polyMesh"

Reading processor 15 mesh from "GTS_ofcomfinal/processor15"
Writing pointProcAddressing to "GTS_ofcomfinal/processor15/1/polyMesh"
Writing faceProcAddressing to "GTS_ofcomfinal/processor15/1/polyMesh"
Writing cellProcAddressing to "GTS_ofcomfinal/processor15/1/polyMesh"
Writing boundaryProcAddressing to "GTS_ofcomfinal/processor15/1/polyMesh"

Reading processor 16 mesh from "GTS_ofcomfinal/processor16"
Writing pointProcAddressing to "GTS_ofcomfinal/processor16/1/polyMesh"
Writing faceProcAddressing to "GTS_ofcomfinal/processor16/1/polyMesh"
Writing cellProcAddressing to "GTS_ofcomfinal/processor16/1/polyMesh"
Writing boundaryProcAddressing to "GTS_ofcomfinal/processor16/1/polyMesh"

Reading processor 17 mesh from "GTS_ofcomfinal/processor17"
Writing pointProcAddressing to "GTS_ofcomfinal/processor17/1/polyMesh"
Writing faceProcAddressing to "GTS_ofcomfinal/processor17/1/polyMesh"
Writing cellProcAddressing to "GTS_ofcomfinal/processor17/1/polyMesh"
Writing boundaryProcAddressing to "GTS_ofcomfinal/processor17/1/polyMesh"

Reading processor 18 mesh from "GTS_ofcomfinal/processor18"
Writing pointProcAddressing to "GTS_ofcomfinal/processor18/1/polyMesh"
Writing faceProcAddressing to "GTS_ofcomfinal/processor18/1/polyMesh"
Writing cellProcAddressing to "GTS_ofcomfinal/processor18/1/polyMesh"
Writing boundaryProcAddressing to "GTS_ofcomfinal/processor18/1/polyMesh"

Reading processor 19 mesh from "GTS_ofcomfinal/processor19"
Writing pointProcAddressing to "GTS_ofcomfinal/processor19/1/polyMesh"
Writing faceProcAddressing to "GTS_ofcomfinal/processor19/1/polyMesh"
Writing cellProcAddressing to "GTS_ofcomfinal/processor19/1/polyMesh"
Writing boundaryProcAddressing to "GTS_ofcomfinal/processor19/1/polyMesh"

Reading processor 20 mesh from "GTS_ofcomfinal/processor20"
Writing pointProcAddressing to "GTS_ofcomfinal/processor20/1/polyMesh"
Writing faceProcAddressing to "GTS_ofcomfinal/processor20/1/polyMesh"
Writing cellProcAddressing to "GTS_ofcomfinal/processor20/1/polyMesh"
Writing boundaryProcAddressing to "GTS_ofcomfinal/processor20/1/polyMesh"

Reading processor 21 mesh from "GTS_ofcomfinal/processor21"
Writing pointProcAddressing to "GTS_ofcomfinal/processor21/1/polyMesh"
Writing faceProcAddressing to "GTS_ofcomfinal/processor21/1/polyMesh"
Writing cellProcAddressing to "GTS_ofcomfinal/processor21/1/polyMesh"
Writing boundaryProcAddressing to "GTS_ofcomfinal/processor21/1/polyMesh"

Reading processor 22 mesh from "GTS_ofcomfinal/processor22"
Writing pointProcAddressing to "GTS_ofcomfinal/processor22/1/polyMesh"
Writing faceProcAddressing to "GTS_ofcomfinal/processor22/1/polyMesh"
Writing cellProcAddressing to "GTS_ofcomfinal/processor22/1/polyMesh"
Writing boundaryProcAddressing to "GTS_ofcomfinal/processor22/1/polyMesh"

Reading processor 23 mesh from "GTS_ofcomfinal/processor23"
Writing pointProcAddressing to "GTS_ofcomfinal/processor23/1/polyMesh"
Writing faceProcAddressing to "GTS_ofcomfinal/processor23/1/polyMesh"
Writing cellProcAddressing to "GTS_ofcomfinal/processor23/1/polyMesh"
Writing boundaryProcAddressing to "GTS_ofcomfinal/processor23/1/polyMesh"

Reading processor 24 mesh from "GTS_ofcomfinal/processor24"
Writing pointProcAddressing to "GTS_ofcomfinal/processor24/1/polyMesh"
Writing faceProcAddressing to "GTS_ofcomfinal/processor24/1/polyMesh"
Writing cellProcAddressing to "GTS_ofcomfinal/processor24/1/polyMesh"
Writing boundaryProcAddressing to "GTS_ofcomfinal/processor24/1/polyMesh"

Reading processor 25 mesh from "GTS_ofcomfinal/processor25"
Writing pointProcAddressing to "GTS_ofcomfinal/processor25/1/polyMesh"
Writing faceProcAddressing to "GTS_ofcomfinal/processor25/1/polyMesh"
Writing cellProcAddressing to "GTS_ofcomfinal/processor25/1/polyMesh"
Writing boundaryProcAddressing to "GTS_ofcomfinal/processor25/1/polyMesh"

Reading processor 26 mesh from "GTS_ofcomfinal/processor26"
Writing pointProcAddressing to "GTS_ofcomfinal/processor26/1/polyMesh"
Writing faceProcAddressing to "GTS_ofcomfinal/processor26/1/polyMesh"
Writing cellProcAddressing to "GTS_ofcomfinal/processor26/1/polyMesh"
Writing boundaryProcAddressing to "GTS_ofcomfinal/processor26/1/polyMesh"

Reading processor 27 mesh from "GTS_ofcomfinal/processor27"
Writing pointProcAddressing to "GTS_ofcomfinal/processor27/1/polyMesh"
Writing faceProcAddressing to "GTS_ofcomfinal/processor27/1/polyMesh"
Writing cellProcAddressing to "GTS_ofcomfinal/processor27/1/polyMesh"
Writing boundaryProcAddressing to "GTS_ofcomfinal/processor27/1/polyMesh"

Reading processor 28 mesh from "GTS_ofcomfinal/processor28"
Writing pointProcAddressing to "GTS_ofcomfinal/processor28/1/polyMesh"
Writing faceProcAddressing to "GTS_ofcomfinal/processor28/1/polyMesh"
Writing cellProcAddressing to "GTS_ofcomfinal/processor28/1/polyMesh"
Writing boundaryProcAddressing to "GTS_ofcomfinal/processor28/1/polyMesh"

Reading processor 29 mesh from "GTS_ofcomfinal/processor29"
Writing pointProcAddressing to "GTS_ofcomfinal/processor29/1/polyMesh"
Writing faceProcAddressing to "GTS_ofcomfinal/processor29/1/polyMesh"
Writing cellProcAddressing to "GTS_ofcomfinal/processor29/1/polyMesh"
Writing boundaryProcAddressing to "GTS_ofcomfinal/processor29/1/polyMesh"

Reading processor 30 mesh from "GTS_ofcomfinal/processor30"
Writing pointProcAddressing to "GTS_ofcomfinal/processor30/1/polyMesh"
Writing faceProcAddressing to "GTS_ofcomfinal/processor30/1/polyMesh"
Writing cellProcAddressing to "GTS_ofcomfinal/processor30/1/polyMesh"
Writing boundaryProcAddressing to "GTS_ofcomfinal/processor30/1/polyMesh"

Reading processor 31 mesh from "GTS_ofcomfinal/processor31"
Writing pointProcAddressing to "GTS_ofcomfinal/processor31/1/polyMesh"
Writing faceProcAddressing to "GTS_ofcomfinal/processor31/1/polyMesh"
Writing cellProcAddressing to "GTS_ofcomfinal/processor31/1/polyMesh"
Writing boundaryProcAddressing to "GTS_ofcomfinal/processor31/1/polyMesh"

Reading processor 32 mesh from "GTS_ofcomfinal/processor32"
Writing pointProcAddressing to "GTS_ofcomfinal/processor32/1/polyMesh"
Writing faceProcAddressing to "GTS_ofcomfinal/processor32/1/polyMesh"
Writing cellProcAddressing to "GTS_ofcomfinal/processor32/1/polyMesh"
Writing boundaryProcAddressing to "GTS_ofcomfinal/processor32/1/polyMesh"

Reading processor 33 mesh from "GTS_ofcomfinal/processor33"
Writing pointProcAddressing to "GTS_ofcomfinal/processor33/1/polyMesh"
Writing faceProcAddressing to "GTS_ofcomfinal/processor33/1/polyMesh"
Writing cellProcAddressing to "GTS_ofcomfinal/processor33/1/polyMesh"
Writing boundaryProcAddressing to "GTS_ofcomfinal/processor33/1/polyMesh"

Reading processor 34 mesh from "GTS_ofcomfinal/processor34"
Writing pointProcAddressing to "GTS_ofcomfinal/processor34/1/polyMesh"
Writing faceProcAddressing to "GTS_ofcomfinal/processor34/1/polyMesh"
Writing cellProcAddressing to "GTS_ofcomfinal/processor34/1/polyMesh"
Writing boundaryProcAddressing to "GTS_ofcomfinal/processor34/1/polyMesh"

Reading processor 35 mesh from "GTS_ofcomfinal/processor35"
Writing pointProcAddressing to "GTS_ofcomfinal/processor35/1/polyMesh"
Writing faceProcAddressing to "GTS_ofcomfinal/processor35/1/polyMesh"
Writing cellProcAddressing to "GTS_ofcomfinal/processor35/1/polyMesh"
Writing boundaryProcAddressing to "GTS_ofcomfinal/processor35/1/polyMesh"

Reading processor 36 mesh from "GTS_ofcomfinal/processor36"
Writing pointProcAddressing to "GTS_ofcomfinal/processor36/1/polyMesh"
Writing faceProcAddressing to "GTS_ofcomfinal/processor36/1/polyMesh"
Writing cellProcAddressing to "GTS_ofcomfinal/processor36/1/polyMesh"
Writing boundaryProcAddressing to "GTS_ofcomfinal/processor36/1/polyMesh"

Reading processor 37 mesh from "GTS_ofcomfinal/processor37"
Writing pointProcAddressing to "GTS_ofcomfinal/processor37/1/polyMesh"
Writing faceProcAddressing to "GTS_ofcomfinal/processor37/1/polyMesh"
Writing cellProcAddressing to "GTS_ofcomfinal/processor37/1/polyMesh"
Writing boundaryProcAddressing to "GTS_ofcomfinal/processor37/1/polyMesh"

Reading processor 38 mesh from "GTS_ofcomfinal/processor38"
Writing pointProcAddressing to "GTS_ofcomfinal/processor38/1/polyMesh"
Writing faceProcAddressing to "GTS_ofcomfinal/processor38/1/polyMesh"
Writing cellProcAddressing to "GTS_ofcomfinal/processor38/1/polyMesh"
Writing boundaryProcAddressing to "GTS_ofcomfinal/processor38/1/polyMesh"

Reading processor 39 mesh from "GTS_ofcomfinal/processor39"
Writing pointProcAddressing to "GTS_ofcomfinal/processor39/1/polyMesh"
Writing faceProcAddressing to "GTS_ofcomfinal/processor39/1/polyMesh"
Writing cellProcAddressing to "GTS_ofcomfinal/processor39/1/polyMesh"
Writing boundaryProcAddressing to "GTS_ofcomfinal/processor39/1/polyMesh"

Reading processor 40 mesh from "GTS_ofcomfinal/processor40"
Writing pointProcAddressing to "GTS_ofcomfinal/processor40/1/polyMesh"
Writing faceProcAddressing to "GTS_ofcomfinal/processor40/1/polyMesh"
Writing cellProcAddressing to "GTS_ofcomfinal/processor40/1/polyMesh"
Writing boundaryProcAddressing to "GTS_ofcomfinal/processor40/1/polyMesh"

Reading processor 41 mesh from "GTS_ofcomfinal/processor41"
Writing pointProcAddressing to "GTS_ofcomfinal/processor41/1/polyMesh"
Writing faceProcAddressing to "GTS_ofcomfinal/processor41/1/polyMesh"
Writing cellProcAddressing to "GTS_ofcomfinal/processor41/1/polyMesh"
Writing boundaryProcAddressing to "GTS_ofcomfinal/processor41/1/polyMesh"

Reading processor 42 mesh from "GTS_ofcomfinal/processor42"
Writing pointProcAddressing to "GTS_ofcomfinal/processor42/1/polyMesh"
Writing faceProcAddressing to "GTS_ofcomfinal/processor42/1/polyMesh"
Writing cellProcAddressing to "GTS_ofcomfinal/processor42/1/polyMesh"
Writing boundaryProcAddressing to "GTS_ofcomfinal/processor42/1/polyMesh"

Reading processor 43 mesh from "GTS_ofcomfinal/processor43"
Writing pointProcAddressing to "GTS_ofcomfinal/processor43/1/polyMesh"
Writing faceProcAddressing to "GTS_ofcomfinal/processor43/1/polyMesh"
Writing cellProcAddressing to "GTS_ofcomfinal/processor43/1/polyMesh"
Writing boundaryProcAddressing to "GTS_ofcomfinal/processor43/1/polyMesh"

Reading processor 44 mesh from "GTS_ofcomfinal/processor44"
Writing pointProcAddressing to "GTS_ofcomfinal/processor44/1/polyMesh"
Writing faceProcAddressing to "GTS_ofcomfinal/processor44/1/polyMesh"
Writing cellProcAddressing to "GTS_ofcomfinal/processor44/1/polyMesh"
Writing boundaryProcAddressing to "GTS_ofcomfinal/processor44/1/polyMesh"

Reading processor 45 mesh from "GTS_ofcomfinal/processor45"
Writing pointProcAddressing to "GTS_ofcomfinal/processor45/1/polyMesh"
Writing faceProcAddressing to "GTS_ofcomfinal/processor45/1/polyMesh"
Writing cellProcAddressing to "GTS_ofcomfinal/processor45/1/polyMesh"
Writing boundaryProcAddressing to "GTS_ofcomfinal/processor45/1/polyMesh"

Reading processor 46 mesh from "GTS_ofcomfinal/processor46"
Writing pointProcAddressing to "GTS_ofcomfinal/processor46/1/polyMesh"
Writing faceProcAddressing to "GTS_ofcomfinal/processor46/1/polyMesh"
Writing cellProcAddressing to "GTS_ofcomfinal/processor46/1/polyMesh"
Writing boundaryProcAddressing to "GTS_ofcomfinal/processor46/1/polyMesh"

Reading processor 47 mesh from "GTS_ofcomfinal/processor47"
Writing pointProcAddressing to "GTS_ofcomfinal/processor47/1/polyMesh"
Writing faceProcAddressing to "GTS_ofcomfinal/processor47/1/polyMesh"
Writing cellProcAddressing to "GTS_ofcomfinal/processor47/1/polyMesh"
Writing boundaryProcAddressing to "GTS_ofcomfinal/processor47/1/polyMesh"

Reading processor 48 mesh from "GTS_ofcomfinal/processor48"
Writing pointProcAddressing to "GTS_ofcomfinal/processor48/1/polyMesh"
Writing faceProcAddressing to "GTS_ofcomfinal/processor48/1/polyMesh"
Writing cellProcAddressing to "GTS_ofcomfinal/processor48/1/polyMesh"
Writing boundaryProcAddressing to "GTS_ofcomfinal/processor48/1/polyMesh"

Reading processor 49 mesh from "GTS_ofcomfinal/processor49"
Writing pointProcAddressing to "GTS_ofcomfinal/processor49/1/polyMesh"
Writing faceProcAddressing to "GTS_ofcomfinal/processor49/1/polyMesh"
Writing cellProcAddressing to "GTS_ofcomfinal/processor49/1/polyMesh"
Writing boundaryProcAddressing to "GTS_ofcomfinal/processor49/1/polyMesh"

Reading processor 50 mesh from "GTS_ofcomfinal/processor50"
Writing pointProcAddressing to "GTS_ofcomfinal/processor50/1/polyMesh"
Writing faceProcAddressing to "GTS_ofcomfinal/processor50/1/polyMesh"
Writing cellProcAddressing to "GTS_ofcomfinal/processor50/1/polyMesh"
Writing boundaryProcAddressing to "GTS_ofcomfinal/processor50/1/polyMesh"

Reading processor 51 mesh from "GTS_ofcomfinal/processor51"
Writing pointProcAddressing to "GTS_ofcomfinal/processor51/1/polyMesh"
Writing faceProcAddressing to "GTS_ofcomfinal/processor51/1/polyMesh"
Writing cellProcAddressing to "GTS_ofcomfinal/processor51/1/polyMesh"
Writing boundaryProcAddressing to "GTS_ofcomfinal/processor51/1/polyMesh"

Reading processor 52 mesh from "GTS_ofcomfinal/processor52"
Writing pointProcAddressing to "GTS_ofcomfinal/processor52/1/polyMesh"
Writing faceProcAddressing to "GTS_ofcomfinal/processor52/1/polyMesh"
Writing cellProcAddressing to "GTS_ofcomfinal/processor52/1/polyMesh"
Writing boundaryProcAddressing to "GTS_ofcomfinal/processor52/1/polyMesh"

Reading processor 53 mesh from "GTS_ofcomfinal/processor53"
Writing pointProcAddressing to "GTS_ofcomfinal/processor53/1/polyMesh"
Writing faceProcAddressing to "GTS_ofcomfinal/processor53/1/polyMesh"
Writing cellProcAddressing to "GTS_ofcomfinal/processor53/1/polyMesh"
Writing boundaryProcAddressing to "GTS_ofcomfinal/processor53/1/polyMesh"

Reading processor 54 mesh from "GTS_ofcomfinal/processor54"
Writing pointProcAddressing to "GTS_ofcomfinal/processor54/1/polyMesh"
Writing faceProcAddressing to "GTS_ofcomfinal/processor54/1/polyMesh"
Writing cellProcAddressing to "GTS_ofcomfinal/processor54/1/polyMesh"
Writing boundaryProcAddressing to "GTS_ofcomfinal/processor54/1/polyMesh"

Reading processor 55 mesh from "GTS_ofcomfinal/processor55"
Writing pointProcAddressing to "GTS_ofcomfinal/processor55/1/polyMesh"
Writing faceProcAddressing to "GTS_ofcomfinal/processor55/1/polyMesh"
Writing cellProcAddressing to "GTS_ofcomfinal/processor55/1/polyMesh"
Writing boundaryProcAddressing to "GTS_ofcomfinal/processor55/1/polyMesh"

Reading processor 56 mesh from "GTS_ofcomfinal/processor56"
Writing pointProcAddressing to "GTS_ofcomfinal/processor56/1/polyMesh"
Writing faceProcAddressing to "GTS_ofcomfinal/processor56/1/polyMesh"
Writing cellProcAddressing to "GTS_ofcomfinal/processor56/1/polyMesh"
Writing boundaryProcAddressing to "GTS_ofcomfinal/processor56/1/polyMesh"

Reading processor 57 mesh from "GTS_ofcomfinal/processor57"
Writing pointProcAddressing to "GTS_ofcomfinal/processor57/1/polyMesh"
Writing faceProcAddressing to "GTS_ofcomfinal/processor57/1/polyMesh"
Writing cellProcAddressing to "GTS_ofcomfinal/processor57/1/polyMesh"
Writing boundaryProcAddressing to "GTS_ofcomfinal/processor57/1/polyMesh"

Reading processor 58 mesh from "GTS_ofcomfinal/processor58"
Writing pointProcAddressing to "GTS_ofcomfinal/processor58/1/polyMesh"
Writing faceProcAddressing to "GTS_ofcomfinal/processor58/1/polyMesh"
Writing cellProcAddressing to "GTS_ofcomfinal/processor58/1/polyMesh"
Writing boundaryProcAddressing to "GTS_ofcomfinal/processor58/1/polyMesh"

Reading processor 59 mesh from "GTS_ofcomfinal/processor59"
Writing pointProcAddressing to "GTS_ofcomfinal/processor59/1/polyMesh"
Writing faceProcAddressing to "GTS_ofcomfinal/processor59/1/polyMesh"
Writing cellProcAddressing to "GTS_ofcomfinal/processor59/1/polyMesh"
Writing boundaryProcAddressing to "GTS_ofcomfinal/processor59/1/polyMesh"

Time = 2

Reading points from "GTS_ofcomfinal/processor0" for time = 2

Reading points from "GTS_ofcomfinal/processor1" for time = 2

Reading points from "GTS_ofcomfinal/processor2" for time = 2

Reading points from "GTS_ofcomfinal/processor3" for time = 2

Reading points from "GTS_ofcomfinal/processor4" for time = 2

Reading points from "GTS_ofcomfinal/processor5" for time = 2

Reading points from "GTS_ofcomfinal/processor6" for time = 2

Reading points from "GTS_ofcomfinal/processor7" for time = 2

Reading points from "GTS_ofcomfinal/processor8" for time = 2

Reading points from "GTS_ofcomfinal/processor9" for time = 2

Reading points from "GTS_ofcomfinal/processor10" for time = 2

Reading points from "GTS_ofcomfinal/processor11" for time = 2

Reading points from "GTS_ofcomfinal/processor12" for time = 2

Reading points from "GTS_ofcomfinal/processor13" for time = 2

Reading points from "GTS_ofcomfinal/processor14" for time = 2

Reading points from "GTS_ofcomfinal/processor15" for time = 2

Reading points from "GTS_ofcomfinal/processor16" for time = 2

Reading points from "GTS_ofcomfinal/processor17" for time = 2

Reading points from "GTS_ofcomfinal/processor18" for time = 2

Reading points from "GTS_ofcomfinal/processor19" for time = 2

Reading points from "GTS_ofcomfinal/processor20" for time = 2

Reading points from "GTS_ofcomfinal/processor21" for time = 2

Reading points from "GTS_ofcomfinal/processor22" for time = 2

Reading points from "GTS_ofcomfinal/processor23" for time = 2

Reading points from "GTS_ofcomfinal/processor24" for time = 2

Reading points from "GTS_ofcomfinal/processor25" for time = 2

Reading points from "GTS_ofcomfinal/processor26" for time = 2

Reading points from "GTS_ofcomfinal/processor27" for time = 2

Reading points from "GTS_ofcomfinal/processor28" for time = 2

Reading points from "GTS_ofcomfinal/processor29" for time = 2

Reading points from "GTS_ofcomfinal/processor30" for time = 2

Reading points from "GTS_ofcomfinal/processor31" for time = 2

Reading points from "GTS_ofcomfinal/processor32" for time = 2

Reading points from "GTS_ofcomfinal/processor33" for time = 2

Reading points from "GTS_ofcomfinal/processor34" for time = 2

Reading points from "GTS_ofcomfinal/processor35" for time = 2

Reading points from "GTS_ofcomfinal/processor36" for time = 2

Reading points from "GTS_ofcomfinal/processor37" for time = 2

Reading points from "GTS_ofcomfinal/processor38" for time = 2

Reading points from "GTS_ofcomfinal/processor39" for time = 2

Reading points from "GTS_ofcomfinal/processor40" for time = 2

Reading points from "GTS_ofcomfinal/processor41" for time = 2

Reading points from "GTS_ofcomfinal/processor42" for time = 2

Reading points from "GTS_ofcomfinal/processor43" for time = 2

Reading points from "GTS_ofcomfinal/processor44" for time = 2

Reading points from "GTS_ofcomfinal/processor45" for time = 2

Reading points from "GTS_ofcomfinal/processor46" for time = 2

Reading points from "GTS_ofcomfinal/processor47" for time = 2

Reading points from "GTS_ofcomfinal/processor48" for time = 2

Reading points from "GTS_ofcomfinal/processor49" for time = 2

Reading points from "GTS_ofcomfinal/processor50" for time = 2

Reading points from "GTS_ofcomfinal/processor51" for time = 2

Reading points from "GTS_ofcomfinal/processor52" for time = 2

Reading points from "GTS_ofcomfinal/processor53" for time = 2

Reading points from "GTS_ofcomfinal/processor54" for time = 2

Reading points from "GTS_ofcomfinal/processor55" for time = 2

Reading points from "GTS_ofcomfinal/processor56" for time = 2

Reading points from "GTS_ofcomfinal/processor57" for time = 2

Reading points from "GTS_ofcomfinal/processor58" for time = 2

Reading points from "GTS_ofcomfinal/processor59" for time = 2

Overall mesh bounding box  : (-7.33423 -1.55305 -0.0762) (4.37197 1.55305 2.0574)
Relative tolerance         : 1e-06
Absolute matching distance : 1.22978e-05

Merging mesh 0 with 1
Merging mesh 2 with 3
Merging mesh 4 with 5
Merging mesh 6 with 7
Merging mesh 8 with 9
Merging mesh 10 with 11
Merging mesh 12 with 13
Merging mesh 14 with 15
Merging mesh 16 with 17
Merging mesh 18 with 19
Merging mesh 20 with 21
Merging mesh 22 with 23
Merging mesh 24 with 25
Merging mesh 26 with 27
Merging mesh 28 with 29
Merging mesh 30 with 31
Merging mesh 32 with 33
Merging mesh 34 with 35
Merging mesh 36 with 37
Merging mesh 38 with 39
Merging mesh 40 with 41
Merging mesh 42 with 43
Merging mesh 44 with 45
Merging mesh 46 with 47
Merging mesh 48 with 49
Merging mesh 50 with 51
Merging mesh 52 with 53
Merging mesh 54 with 55
Merging mesh 56 with 57
Merging mesh 58 with 59
Merging mesh 0 with 2
Merging mesh 4 with 6
Merging mesh 8 with 10
Merging mesh 12 with 14
Merging mesh 16 with 18
Merging mesh 20 with 22
Merging mesh 24 with 26
Merging mesh 28 with 30
Merging mesh 32 with 34
Merging mesh 36 with 38
Merging mesh 40 with 42
Merging mesh 44 with 46
Merging mesh 48 with 50
Merging mesh 52 with 54
Merging mesh 56 with 58
Merging mesh 0 with 4
Merging mesh 8 with 12
Merging mesh 16 with 20
Merging mesh 24 with 28
Merging mesh 32 with 36
Merging mesh 40 with 44
Merging mesh 48 with 52
Merging mesh 0 with 8
Merging mesh 16 with 24
Merging mesh 32 with 40
Merging mesh 48 with 56
Merging mesh 0 with 16
Merging mesh 32 with 48
Merging mesh 0 with 32
Reading mesh to add from "GTS_ofcomfinal/processor0" for time = 2


Reading mesh to add from "GTS_ofcomfinal/processor1" for time = 2


Reading mesh to add from "GTS_ofcomfinal/processor2" for time = 2


Reading mesh to add from "GTS_ofcomfinal/processor3" for time = 2


Reading mesh to add from "GTS_ofcomfinal/processor4" for time = 2


Reading mesh to add from "GTS_ofcomfinal/processor5" for time = 2


Reading mesh to add from "GTS_ofcomfinal/processor6" for time = 2


Reading mesh to add from "GTS_ofcomfinal/processor7" for time = 2


Reading mesh to add from "GTS_ofcomfinal/processor8" for time = 2


Reading mesh to add from "GTS_ofcomfinal/processor9" for time = 2


Reading mesh to add from "GTS_ofcomfinal/processor10" for time = 2


Reading mesh to add from "GTS_ofcomfinal/processor11" for time = 2


Reading mesh to add from "GTS_ofcomfinal/processor12" for time = 2


Reading mesh to add from "GTS_ofcomfinal/processor13" for time = 2


Reading mesh to add from "GTS_ofcomfinal/processor14" for time = 2


Reading mesh to add from "GTS_ofcomfinal/processor15" for time = 2


Reading mesh to add from "GTS_ofcomfinal/processor16" for time = 2


Reading mesh to add from "GTS_ofcomfinal/processor17" for time = 2


Reading mesh to add from "GTS_ofcomfinal/processor18" for time = 2


Reading mesh to add from "GTS_ofcomfinal/processor19" for time = 2


Reading mesh to add from "GTS_ofcomfinal/processor20" for time = 2


Reading mesh to add from "GTS_ofcomfinal/processor21" for time = 2


Reading mesh to add from "GTS_ofcomfinal/processor22" for time = 2


Reading mesh to add from "GTS_ofcomfinal/processor23" for time = 2


Reading mesh to add from "GTS_ofcomfinal/processor24" for time = 2


Reading mesh to add from "GTS_ofcomfinal/processor25" for time = 2


Reading mesh to add from "GTS_ofcomfinal/processor26" for time = 2


Reading mesh to add from "GTS_ofcomfinal/processor27" for time = 2


Reading mesh to add from "GTS_ofcomfinal/processor28" for time = 2


Reading mesh to add from "GTS_ofcomfinal/processor29" for time = 2


Reading mesh to add from "GTS_ofcomfinal/processor30" for time = 2


Reading mesh to add from "GTS_ofcomfinal/processor31" for time = 2


Reading mesh to add from "GTS_ofcomfinal/processor32" for time = 2


Reading mesh to add from "GTS_ofcomfinal/processor33" for time = 2


Reading mesh to add from "GTS_ofcomfinal/processor34" for time = 2


Reading mesh to add from "GTS_ofcomfinal/processor35" for time = 2


Reading mesh to add from "GTS_ofcomfinal/processor36" for time = 2


Reading mesh to add from "GTS_ofcomfinal/processor37" for time = 2


Reading mesh to add from "GTS_ofcomfinal/processor38" for time = 2


Reading mesh to add from "GTS_ofcomfinal/processor39" for time = 2


Reading mesh to add from "GTS_ofcomfinal/processor40" for time = 2


Reading mesh to add from "GTS_ofcomfinal/processor41" for time = 2


Reading mesh to add from "GTS_ofcomfinal/processor42" for time = 2


Reading mesh to add from "GTS_ofcomfinal/processor43" for time = 2


Reading mesh to add from "GTS_ofcomfinal/processor44" for time = 2


Reading mesh to add from "GTS_ofcomfinal/processor45" for time = 2


Reading mesh to add from "GTS_ofcomfinal/processor46" for time = 2


Reading mesh to add from "GTS_ofcomfinal/processor47" for time = 2


Reading mesh to add from "GTS_ofcomfinal/processor48" for time = 2


Reading mesh to add from "GTS_ofcomfinal/processor49" for time = 2


Reading mesh to add from "GTS_ofcomfinal/processor50" for time = 2


Reading mesh to add from "GTS_ofcomfinal/processor51" for time = 2


Reading mesh to add from "GTS_ofcomfinal/processor52" for time = 2


Reading mesh to add from "GTS_ofcomfinal/processor53" for time = 2


Reading mesh to add from "GTS_ofcomfinal/processor54" for time = 2


Reading mesh to add from "GTS_ofcomfinal/processor55" for time = 2


Reading mesh to add from "GTS_ofcomfinal/processor56" for time = 2


Reading mesh to add from "GTS_ofcomfinal/processor57" for time = 2


Reading mesh to add from "GTS_ofcomfinal/processor58" for time = 2


Reading mesh to add from "GTS_ofcomfinal/processor59" for time = 2


mergeSharedPoints : detected 0 points that are to be merged.

Writing merged mesh to "/home/finzeo/storage/Mallas/test/GTS_ofcomfinal/2"

Reconstructing the addressing from the processor meshes to the newly reconstructed mesh

Reading processor 0 mesh from "GTS_ofcomfinal/processor0"
Writing pointProcAddressing to "GTS_ofcomfinal/processor0/2/polyMesh"
Writing faceProcAddressing to "GTS_ofcomfinal/processor0/2/polyMesh"
Writing cellProcAddressing to "GTS_ofcomfinal/processor0/2/polyMesh"
Writing boundaryProcAddressing to "GTS_ofcomfinal/processor0/2/polyMesh"

Reading processor 1 mesh from "GTS_ofcomfinal/processor1"
Writing pointProcAddressing to "GTS_ofcomfinal/processor1/2/polyMesh"
Writing faceProcAddressing to "GTS_ofcomfinal/processor1/2/polyMesh"
Writing cellProcAddressing to "GTS_ofcomfinal/processor1/2/polyMesh"
Writing boundaryProcAddressing to "GTS_ofcomfinal/processor1/2/polyMesh"

Reading processor 2 mesh from "GTS_ofcomfinal/processor2"
Writing pointProcAddressing to "GTS_ofcomfinal/processor2/2/polyMesh"
Writing faceProcAddressing to "GTS_ofcomfinal/processor2/2/polyMesh"
Writing cellProcAddressing to "GTS_ofcomfinal/processor2/2/polyMesh"
Writing boundaryProcAddressing to "GTS_ofcomfinal/processor2/2/polyMesh"

Reading processor 3 mesh from "GTS_ofcomfinal/processor3"
Writing pointProcAddressing to "GTS_ofcomfinal/processor3/2/polyMesh"
Writing faceProcAddressing to "GTS_ofcomfinal/processor3/2/polyMesh"
Writing cellProcAddressing to "GTS_ofcomfinal/processor3/2/polyMesh"
Writing boundaryProcAddressing to "GTS_ofcomfinal/processor3/2/polyMesh"

Reading processor 4 mesh from "GTS_ofcomfinal/processor4"
Writing pointProcAddressing to "GTS_ofcomfinal/processor4/2/polyMesh"
Writing faceProcAddressing to "GTS_ofcomfinal/processor4/2/polyMesh"
Writing cellProcAddressing to "GTS_ofcomfinal/processor4/2/polyMesh"
Writing boundaryProcAddressing to "GTS_ofcomfinal/processor4/2/polyMesh"

Reading processor 5 mesh from "GTS_ofcomfinal/processor5"
Writing pointProcAddressing to "GTS_ofcomfinal/processor5/2/polyMesh"
Writing faceProcAddressing to "GTS_ofcomfinal/processor5/2/polyMesh"
Writing cellProcAddressing to "GTS_ofcomfinal/processor5/2/polyMesh"
Writing boundaryProcAddressing to "GTS_ofcomfinal/processor5/2/polyMesh"

Reading processor 6 mesh from "GTS_ofcomfinal/processor6"
Writing pointProcAddressing to "GTS_ofcomfinal/processor6/2/polyMesh"
Writing faceProcAddressing to "GTS_ofcomfinal/processor6/2/polyMesh"
Writing cellProcAddressing to "GTS_ofcomfinal/processor6/2/polyMesh"
Writing boundaryProcAddressing to "GTS_ofcomfinal/processor6/2/polyMesh"

[...]
Writing pointProcAddressing to "GTS_ofcomfinal/processor2/3/polyMesh"
Writing faceProcAddressing to "GTS_ofcomfinal/processor2/3/polyMesh"
Writing cellProcAddressing to "GTS_ofcomfinal/processor2/3/polyMesh"
Writing boundaryProcAddressing to "GTS_ofcomfinal/processor2/3/polyMesh"

Reading processor 3 mesh from "GTS_ofcomfinal/processor3"
Writing pointProcAddressing to "GTS_ofcomfinal/processor3/3/polyMesh"
Writing faceProcAddressing to "GTS_ofcomfinal/processor3/3/polyMesh"
Writing cellProcAddressing to "GTS_ofcomfinal/processor3/3/polyMesh"
Writing boundaryProcAddressing to "GTS_ofcomfinal/processor3/3/polyMesh"

Reading processor 4 mesh from "GTS_ofcomfinal/processor4"
Writing pointProcAddressing to "GTS_ofcomfinal/processor4/3/polyMesh"
Writing faceProcAddressing to "GTS_ofcomfinal/processor4/3/polyMesh"
Writing cellProcAddressing to "GTS_ofcomfinal/processor4/3/polyMesh"
Writing boundaryProcAddressing to "GTS_ofcomfinal/processor4/3/polyMesh"

Reading processor 5 mesh from "GTS_ofcomfinal/processor5"
Writing pointProcAddressing to "GTS_ofcomfinal/processor5/3/polyMesh"
Writing faceProcAddressing to "GTS_ofcomfinal/processor5/3/polyMesh"
Writing cellProcAddressing to "GTS_ofcomfinal/processor5/3/polyMesh"
Writing boundaryProcAddressing to "GTS_ofcomfinal/processor5/3/polyMesh"

Reading processor 6 mesh from "GTS_ofcomfinal/processor6"
Writing pointProcAddressing to "GTS_ofcomfinal/processor6/3/polyMesh"
Writing faceProcAddressing to "GTS_ofcomfinal/processor6/3/polyMesh"
Writing cellProcAddressing to "GTS_ofcomfinal/processor6/3/polyMesh"
Writing boundaryProcAddressing to "GTS_ofcomfinal/processor6/3/polyMesh"

Reading processor 7 mesh from "GTS_ofcomfinal/processor7"
Writing pointProcAddressing to "GTS_ofcomfinal/processor7/3/polyMesh"
Writing faceProcAddressing to "GTS_ofcomfinal/processor7/3/polyMesh"
Writing cellProcAddressing to "GTS_ofcomfinal/processor7/3/polyMesh"
Writing boundaryProcAddressing to "GTS_ofcomfinal/processor7/3/polyMesh"

Reading processor 8 mesh from "GTS_ofcomfinal/processor8"
Writing pointProcAddressing to "GTS_ofcomfinal/processor8/3/polyMesh"
Writing faceProcAddressing to "GTS_ofcomfinal/processor8/3/polyMesh"
Writing cellProcAddressing to "GTS_ofcomfinal/processor8/3/polyMesh"
Writing boundaryProcAddressing to "GTS_ofcomfinal/processor8/3/polyMesh"

Reading processor 9 mesh from "GTS_ofcomfinal/processor9"
Writing pointProcAddressing to "GTS_ofcomfinal/processor9/3/polyMesh"
Writing faceProcAddressing to "GTS_ofcomfinal/processor9/3/polyMesh"
Writing cellProcAddressing to "GTS_ofcomfinal/processor9/3/polyMesh"
Writing boundaryProcAddressing to "GTS_ofcomfinal/processor9/3/polyMesh"

Reading processor 10 mesh from "GTS_ofcomfinal/processor10"
Writing pointProcAddressing to "GTS_ofcomfinal/processor10/3/polyMesh"
Writing faceProcAddressing to "GTS_ofcomfinal/processor10/3/polyMesh"
Writing cellProcAddressing to "GTS_ofcomfinal/processor10/3/polyMesh"
Writing boundaryProcAddressing to "GTS_ofcomfinal/processor10/3/polyMesh"

Reading processor 11 mesh from "GTS_ofcomfinal/processor11"
Writing pointProcAddressing to "GTS_ofcomfinal/processor11/3/polyMesh"
Writing faceProcAddressing to "GTS_ofcomfinal/processor11/3/polyMesh"
Writing cellProcAddressing to "GTS_ofcomfinal/processor11/3/polyMesh"
Writing boundaryProcAddressing to "GTS_ofcomfinal/processor11/3/polyMesh"

Reading processor 12 mesh from "GTS_ofcomfinal/processor12"
Writing pointProcAddressing to "GTS_ofcomfinal/processor12/3/polyMesh"
Writing faceProcAddressing to "GTS_ofcomfinal/processor12/3/polyMesh"
Writing cellProcAddressing to "GTS_ofcomfinal/processor12/3/polyMesh"
Writing boundaryProcAddressing to "GTS_ofcomfinal/processor12/3/polyMesh"

Reading processor 13 mesh from "GTS_ofcomfinal/processor13"
Writing pointProcAddressing to "GTS_ofcomfinal/processor13/3/polyMesh"
Writing faceProcAddressing to "GTS_ofcomfinal/processor13/3/polyMesh"
Writing cellProcAddressing to "GTS_ofcomfinal/processor13/3/polyMesh"
Writing boundaryProcAddressing to "GTS_ofcomfinal/processor13/3/polyMesh"

Reading processor 14 mesh from "GTS_ofcomfinal/processor14"
Writing pointProcAddressing to "GTS_ofcomfinal/processor14/3/polyMesh"
Writing faceProcAddressing to "GTS_ofcomfinal/processor14/3/polyMesh"
Writing cellProcAddressing to "GTS_ofcomfinal/processor14/3/polyMesh"
Writing boundaryProcAddressing to "GTS_ofcomfinal/processor14/3/polyMesh"

Reading processor 15 mesh from "GTS_ofcomfinal/processor15"
Writing pointProcAddressing to "GTS_ofcomfinal/processor15/3/polyMesh"
Writing faceProcAddressing to "GTS_ofcomfinal/processor15/3/polyMesh"
Writing cellProcAddressing to "GTS_ofcomfinal/processor15/3/polyMesh"
Writing boundaryProcAddressing to "GTS_ofcomfinal/processor15/3/polyMesh"

Reading processor 16 mesh from "GTS_ofcomfinal/processor16"
Writing pointProcAddressing to "GTS_ofcomfinal/processor16/3/polyMesh"
Writing faceProcAddressing to "GTS_ofcomfinal/processor16/3/polyMesh"
Writing cellProcAddressing to "GTS_ofcomfinal/processor16/3/polyMesh"
Writing boundaryProcAddressing to "GTS_ofcomfinal/processor16/3/polyMesh"

Reading processor 17 mesh from "GTS_ofcomfinal/processor17"
Writing pointProcAddressing to "GTS_ofcomfinal/processor17/3/polyMesh"
Writing faceProcAddressing to "GTS_ofcomfinal/processor17/3/polyMesh"
Writing cellProcAddressing to "GTS_ofcomfinal/processor17/3/polyMesh"
Writing boundaryProcAddressing to "GTS_ofcomfinal/processor17/3/polyMesh"

Reading processor 18 mesh from "GTS_ofcomfinal/processor18"
Writing pointProcAddressing to "GTS_ofcomfinal/processor18/3/polyMesh"
Writing faceProcAddressing to "GTS_ofcomfinal/processor18/3/polyMesh"
Writing cellProcAddressing to "GTS_ofcomfinal/processor18/3/polyMesh"
Writing boundaryProcAddressing to "GTS_ofcomfinal/processor18/3/polyMesh"

Reading processor 19 mesh from "GTS_ofcomfinal/processor19"
Writing pointProcAddressing to "GTS_ofcomfinal/processor19/3/polyMesh"
Writing faceProcAddressing to "GTS_ofcomfinal/processor19/3/polyMesh"
Writing cellProcAddressing to "GTS_ofcomfinal/processor19/3/polyMesh"
Writing boundaryProcAddressing to "GTS_ofcomfinal/processor19/3/polyMesh"

Reading processor 20 mesh from "GTS_ofcomfinal/processor20"
Writing pointProcAddressing to "GTS_ofcomfinal/processor20/3/polyMesh"
Writing faceProcAddressing to "GTS_ofcomfinal/processor20/3/polyMesh"
Writing cellProcAddressing to "GTS_ofcomfinal/processor20/3/polyMesh"
Writing boundaryProcAddressing to "GTS_ofcomfinal/processor20/3/polyMesh"

Reading processor 21 mesh from "GTS_ofcomfinal/processor21"
Writing pointProcAddressing to "GTS_ofcomfinal/processor21/3/polyMesh"
Writing faceProcAddressing to "GTS_ofcomfinal/processor21/3/polyMesh"
Writing cellProcAddressing to "GTS_ofcomfinal/processor21/3/polyMesh"
Writing boundaryProcAddressing to "GTS_ofcomfinal/processor21/3/polyMesh"

Reading processor 22 mesh from "GTS_ofcomfinal/processor22"
Writing pointProcAddressing to "GTS_ofcomfinal/processor22/3/polyMesh"
Writing faceProcAddressing to "GTS_ofcomfinal/processor22/3/polyMesh"
Writing cellProcAddressing to "GTS_ofcomfinal/processor22/3/polyMesh"
Writing boundaryProcAddressing to "GTS_ofcomfinal/processor22/3/polyMesh"

Reading processor 23 mesh from "GTS_ofcomfinal/processor23"
Writing pointProcAddressing to "GTS_ofcomfinal/processor23/3/polyMesh"
Writing faceProcAddressing to "GTS_ofcomfinal/processor23/3/polyMesh"
Writing cellProcAddressing to "GTS_ofcomfinal/processor23/3/polyMesh"
Writing boundaryProcAddressing to "GTS_ofcomfinal/processor23/3/polyMesh"

Reading processor 24 mesh from "GTS_ofcomfinal/processor24"
Writing pointProcAddressing to "GTS_ofcomfinal/processor24/3/polyMesh"
Writing faceProcAddressing to "GTS_ofcomfinal/processor24/3/polyMesh"
Writing cellProcAddressing to "GTS_ofcomfinal/processor24/3/polyMesh"
Writing boundaryProcAddressing to "GTS_ofcomfinal/processor24/3/polyMesh"

Reading processor 25 mesh from "GTS_ofcomfinal/processor25"
Writing pointProcAddressing to "GTS_ofcomfinal/processor25/3/polyMesh"
Writing faceProcAddressing to "GTS_ofcomfinal/processor25/3/polyMesh"
Writing cellProcAddressing to "GTS_ofcomfinal/processor25/3/polyMesh"
Writing boundaryProcAddressing to "GTS_ofcomfinal/processor25/3/polyMesh"

Reading processor 26 mesh from "GTS_ofcomfinal/processor26"
Writing pointProcAddressing to "GTS_ofcomfinal/processor26/3/polyMesh"
Writing faceProcAddressing to "GTS_ofcomfinal/processor26/3/polyMesh"
Writing cellProcAddressing to "GTS_ofcomfinal/processor26/3/polyMesh"
Writing boundaryProcAddressing to "GTS_ofcomfinal/processor26/3/polyMesh"

Reading processor 27 mesh from "GTS_ofcomfinal/processor27"
Writing pointProcAddressing to "GTS_ofcomfinal/processor27/3/polyMesh"
Writing faceProcAddressing to "GTS_ofcomfinal/processor27/3/polyMesh"
Writing cellProcAddressing to "GTS_ofcomfinal/processor27/3/polyMesh"
Writing boundaryProcAddressing to "GTS_ofcomfinal/processor27/3/polyMesh"

Reading processor 28 mesh from "GTS_ofcomfinal/processor28"
Writing pointProcAddressing to "GTS_ofcomfinal/processor28/3/polyMesh"
Writing faceProcAddressing to "GTS_ofcomfinal/processor28/3/polyMesh"
Writing cellProcAddressing to "GTS_ofcomfinal/processor28/3/polyMesh"
Writing boundaryProcAddressing to "GTS_ofcomfinal/processor28/3/polyMesh"

Reading processor 29 mesh from "GTS_ofcomfinal/processor29"
Writing pointProcAddressing to "GTS_ofcomfinal/processor29/3/polyMesh"
Writing faceProcAddressing to "GTS_ofcomfinal/processor29/3/polyMesh"
Writing cellProcAddressing to "GTS_ofcomfinal/processor29/3/polyMesh"
Writing boundaryProcAddressing to "GTS_ofcomfinal/processor29/3/polyMesh"

Reading processor 30 mesh from "GTS_ofcomfinal/processor30"
Writing pointProcAddressing to "GTS_ofcomfinal/processor30/3/polyMesh"
Writing faceProcAddressing to "GTS_ofcomfinal/processor30/3/polyMesh"
Writing cellProcAddressing to "GTS_ofcomfinal/processor30/3/polyMesh"
Writing boundaryProcAddressing to "GTS_ofcomfinal/processor30/3/polyMesh"

Reading processor 31 mesh from "GTS_ofcomfinal/processor31"
Writing pointProcAddressing to "GTS_ofcomfinal/processor31/3/polyMesh"
Writing faceProcAddressing to "GTS_ofcomfinal/processor31/3/polyMesh"
Writing cellProcAddressing to "GTS_ofcomfinal/processor31/3/polyMesh"
Writing boundaryProcAddressing to "GTS_ofcomfinal/processor31/3/polyMesh"

Reading processor 32 mesh from "GTS_ofcomfinal/processor32"
Writing pointProcAddressing to "GTS_ofcomfinal/processor32/3/polyMesh"
Writing faceProcAddressing to "GTS_ofcomfinal/processor32/3/polyMesh"
Writing cellProcAddressing to "GTS_ofcomfinal/processor32/3/polyMesh"
Writing boundaryProcAddressing to "GTS_ofcomfinal/processor32/3/polyMesh"

Reading processor 33 mesh from "GTS_ofcomfinal/processor33"
Writing pointProcAddressing to "GTS_ofcomfinal/processor33/3/polyMesh"
Writing faceProcAddressing to "GTS_ofcomfinal/processor33/3/polyMesh"
Writing cellProcAddressing to "GTS_ofcomfinal/processor33/3/polyMesh"
Writing boundaryProcAddressing to "GTS_ofcomfinal/processor33/3/polyMesh"

Reading processor 34 mesh from "GTS_ofcomfinal/processor34"
Writing pointProcAddressing to "GTS_ofcomfinal/processor34/3/polyMesh"
Writing faceProcAddressing to "GTS_ofcomfinal/processor34/3/polyMesh"
Writing cellProcAddressing to "GTS_ofcomfinal/processor34/3/polyMesh"
Writing boundaryProcAddressing to "GTS_ofcomfinal/processor34/3/polyMesh"

Reading processor 35 mesh from "GTS_ofcomfinal/processor35"
Writing pointProcAddressing to "GTS_ofcomfinal/processor35/3/polyMesh"
Writing faceProcAddressing to "GTS_ofcomfinal/processor35/3/polyMesh"
Writing cellProcAddressing to "GTS_ofcomfinal/processor35/3/polyMesh"
Writing boundaryProcAddressing to "GTS_ofcomfinal/processor35/3/polyMesh"

Reading processor 36 mesh from "GTS_ofcomfinal/processor36"
Writing pointProcAddressing to "GTS_ofcomfinal/processor36/3/polyMesh"
Writing faceProcAddressing to "GTS_ofcomfinal/processor36/3/polyMesh"
Writing cellProcAddressing to "GTS_ofcomfinal/processor36/3/polyMesh"
Writing boundaryProcAddressing to "GTS_ofcomfinal/processor36/3/polyMesh"

Reading processor 37 mesh from "GTS_ofcomfinal/processor37"
Writing pointProcAddressing to "GTS_ofcomfinal/processor37/3/polyMesh"
Writing faceProcAddressing to "GTS_ofcomfinal/processor37/3/polyMesh"
Writing cellProcAddressing to "GTS_ofcomfinal/processor37/3/polyMesh"
Writing boundaryProcAddressing to "GTS_ofcomfinal/processor37/3/polyMesh"

Reading processor 38 mesh from "GTS_ofcomfinal/processor38"
Writing pointProcAddressing to "GTS_ofcomfinal/processor38/3/polyMesh"
Writing faceProcAddressing to "GTS_ofcomfinal/processor38/3/polyMesh"
Writing cellProcAddressing to "GTS_ofcomfinal/processor38/3/polyMesh"
Writing boundaryProcAddressing to "GTS_ofcomfinal/processor38/3/polyMesh"

Reading processor 39 mesh from "GTS_ofcomfinal/processor39"
Writing pointProcAddressing to "GTS_ofcomfinal/processor39/3/polyMesh"
Writing faceProcAddressing to "GTS_ofcomfinal/processor39/3/polyMesh"
Writing cellProcAddressing to "GTS_ofcomfinal/processor39/3/polyMesh"
Writing boundaryProcAddressing to "GTS_ofcomfinal/processor39/3/polyMesh"

Reading processor 40 mesh from "GTS_ofcomfinal/processor40"
Writing pointProcAddressing to "GTS_ofcomfinal/processor40/3/polyMesh"
Writing faceProcAddressing to "GTS_ofcomfinal/processor40/3/polyMesh"
Writing cellProcAddressing to "GTS_ofcomfinal/processor40/3/polyMesh"
Writing boundaryProcAddressing to "GTS_ofcomfinal/processor40/3/polyMesh"

Reading processor 41 mesh from "GTS_ofcomfinal/processor41"
Writing pointProcAddressing to "GTS_ofcomfinal/processor41/3/polyMesh"
Writing faceProcAddressing to "GTS_ofcomfinal/processor41/3/polyMesh"
Writing cellProcAddressing to "GTS_ofcomfinal/processor41/3/polyMesh"
Writing boundaryProcAddressing to "GTS_ofcomfinal/processor41/3/polyMesh"

Reading processor 42 mesh from "GTS_ofcomfinal/processor42"
Writing pointProcAddressing to "GTS_ofcomfinal/processor42/3/polyMesh"
Writing faceProcAddressing to "GTS_ofcomfinal/processor42/3/polyMesh"
Writing cellProcAddressing to "GTS_ofcomfinal/processor42/3/polyMesh"
Writing boundaryProcAddressing to "GTS_ofcomfinal/processor42/3/polyMesh"

Reading processor 43 mesh from "GTS_ofcomfinal/processor43"
Writing pointProcAddressing to "GTS_ofcomfinal/processor43/3/polyMesh"
Writing faceProcAddressing to "GTS_ofcomfinal/processor43/3/polyMesh"
Writing cellProcAddressing to "GTS_ofcomfinal/processor43/3/polyMesh"
Writing boundaryProcAddressing to "GTS_ofcomfinal/processor43/3/polyMesh"

Reading processor 44 mesh from "GTS_ofcomfinal/processor44"
Writing pointProcAddressing to "GTS_ofcomfinal/processor44/3/polyMesh"
Writing faceProcAddressing to "GTS_ofcomfinal/processor44/3/polyMesh"
Writing cellProcAddressing to "GTS_ofcomfinal/processor44/3/polyMesh"
Writing boundaryProcAddressing to "GTS_ofcomfinal/processor44/3/polyMesh"

Reading processor 45 mesh from "GTS_ofcomfinal/processor45"
Writing pointProcAddressing to "GTS_ofcomfinal/processor45/3/polyMesh"
Writing faceProcAddressing to "GTS_ofcomfinal/processor45/3/polyMesh"
Writing cellProcAddressing to "GTS_ofcomfinal/processor45/3/polyMesh"
Writing boundaryProcAddressing to "GTS_ofcomfinal/processor45/3/polyMesh"

Reading processor 46 mesh from "GTS_ofcomfinal/processor46"
Writing pointProcAddressing to "GTS_ofcomfinal/processor46/3/polyMesh"
Writing faceProcAddressing to "GTS_ofcomfinal/processor46/3/polyMesh"
Writing cellProcAddressing to "GTS_ofcomfinal/processor46/3/polyMesh"
Writing boundaryProcAddressing to "GTS_ofcomfinal/processor46/3/polyMesh"

Reading processor 47 mesh from "GTS_ofcomfinal/processor47"
Writing pointProcAddressing to "GTS_ofcomfinal/processor47/3/polyMesh"
Writing faceProcAddressing to "GTS_ofcomfinal/processor47/3/polyMesh"
Writing cellProcAddressing to "GTS_ofcomfinal/processor47/3/polyMesh"
Writing boundaryProcAddressing to "GTS_ofcomfinal/processor47/3/polyMesh"

Reading processor 48 mesh from "GTS_ofcomfinal/processor48"
Writing pointProcAddressing to "GTS_ofcomfinal/processor48/3/polyMesh"
Writing faceProcAddressing to "GTS_ofcomfinal/processor48/3/polyMesh"
Writing cellProcAddressing to "GTS_ofcomfinal/processor48/3/polyMesh"
Writing boundaryProcAddressing to "GTS_ofcomfinal/processor48/3/polyMesh"

Reading processor 49 mesh from "GTS_ofcomfinal/processor49"
Writing pointProcAddressing to "GTS_ofcomfinal/processor49/3/polyMesh"
Writing faceProcAddressing to "GTS_ofcomfinal/processor49/3/polyMesh"
Writing cellProcAddressing to "GTS_ofcomfinal/processor49/3/polyMesh"
Writing boundaryProcAddressing to "GTS_ofcomfinal/processor49/3/polyMesh"

Reading processor 50 mesh from "GTS_ofcomfinal/processor50"
Writing pointProcAddressing to "GTS_ofcomfinal/processor50/3/polyMesh"
Writing faceProcAddressing to "GTS_ofcomfinal/processor50/3/polyMesh"
Writing cellProcAddressing to "GTS_ofcomfinal/processor50/3/polyMesh"
Writing boundaryProcAddressing to "GTS_ofcomfinal/processor50/3/polyMesh"

Reading processor 51 mesh from "GTS_ofcomfinal/processor51"
Writing pointProcAddressing to "GTS_ofcomfinal/processor51/3/polyMesh"
Writing faceProcAddressing to "GTS_ofcomfinal/processor51/3/polyMesh"
Writing cellProcAddressing to "GTS_ofcomfinal/processor51/3/polyMesh"
Writing boundaryProcAddressing to "GTS_ofcomfinal/processor51/3/polyMesh"

Reading processor 52 mesh from "GTS_ofcomfinal/processor52"
Writing pointProcAddressing to "GTS_ofcomfinal/processor52/3/polyMesh"
Writing faceProcAddressing to "GTS_ofcomfinal/processor52/3/polyMesh"
Writing cellProcAddressing to "GTS_ofcomfinal/processor52/3/polyMesh"
Writing boundaryProcAddressing to "GTS_ofcomfinal/processor52/3/polyMesh"

Reading processor 53 mesh from "GTS_ofcomfinal/processor53"
Writing pointProcAddressing to "GTS_ofcomfinal/processor53/3/polyMesh"
Writing faceProcAddressing to "GTS_ofcomfinal/processor53/3/polyMesh"
Writing cellProcAddressing to "GTS_ofcomfinal/processor53/3/polyMesh"
Writing boundaryProcAddressing to "GTS_ofcomfinal/processor53/3/polyMesh"

Reading processor 54 mesh from "GTS_ofcomfinal/processor54"
Writing pointProcAddressing to "GTS_ofcomfinal/processor54/3/polyMesh"
Writing faceProcAddressing to "GTS_ofcomfinal/processor54/3/polyMesh"
Writing cellProcAddressing to "GTS_ofcomfinal/processor54/3/polyMesh"
Writing boundaryProcAddressing to "GTS_ofcomfinal/processor54/3/polyMesh"

Reading processor 55 mesh from "GTS_ofcomfinal/processor55"
Writing pointProcAddressing to "GTS_ofcomfinal/processor55/3/polyMesh"
Writing faceProcAddressing to "GTS_ofcomfinal/processor55/3/polyMesh"
Writing cellProcAddressing to "GTS_ofcomfinal/processor55/3/polyMesh"
Writing boundaryProcAddressing to "GTS_ofcomfinal/processor55/3/polyMesh"

Reading processor 56 mesh from "GTS_ofcomfinal/processor56"
Writing pointProcAddressing to "GTS_ofcomfinal/processor56/3/polyMesh"
Writing faceProcAddressing to "GTS_ofcomfinal/processor56/3/polyMesh"
Writing cellProcAddressing to "GTS_ofcomfinal/processor56/3/polyMesh"
Writing boundaryProcAddressing to "GTS_ofcomfinal/processor56/3/polyMesh"

Reading processor 57 mesh from "GTS_ofcomfinal/processor57"
Writing pointProcAddressing to "GTS_ofcomfinal/processor57/3/polyMesh"
Writing faceProcAddressing to "GTS_ofcomfinal/processor57/3/polyMesh"
Writing cellProcAddressing to "GTS_ofcomfinal/processor57/3/polyMesh"
Writing boundaryProcAddressing to "GTS_ofcomfinal/processor57/3/polyMesh"

Reading processor 58 mesh from "GTS_ofcomfinal/processor58"
Writing pointProcAddressing to "GTS_ofcomfinal/processor58/3/polyMesh"
Writing faceProcAddressing to "GTS_ofcomfinal/processor58/3/polyMesh"
Writing cellProcAddressing to "GTS_ofcomfinal/processor58/3/polyMesh"
Writing boundaryProcAddressing to "GTS_ofcomfinal/processor58/3/polyMesh"

Reading processor 59 mesh from "GTS_ofcomfinal/processor59"
Writing pointProcAddressing to "GTS_ofcomfinal/processor59/3/polyMesh"
Writing faceProcAddressing to "GTS_ofcomfinal/processor59/3/polyMesh"
Writing cellProcAddressing to "GTS_ofcomfinal/processor59/3/polyMesh"
Writing boundaryProcAddressing to "GTS_ofcomfinal/processor59/3/polyMesh"


End

