/*---------------------------------------------------------------------------*\
| =========                 |                                                 |
| \\      /  F ield         | OpenFOAM: The Open Source CFD Toolbox           |
|  \\    /   O peration     | Version:  v1812                                 |
|   \\  /    A nd           | Web:      www.OpenFOAM.com                      |
|    \\/     M anipulation  |                                                 |
\*---------------------------------------------------------------------------*/
Build  : v1812 OPENFOAM=1812
Arch   : "LSB;label=32;scalar=64"
Exec   : renumberMesh -latestTime
Date   : Mar 22 2023
Time   : 23:36:40
Host   : compute-0-12.local
PID    : 67657
I/O    : uncollated
Case   : /home/finzeo/storage/Mallas/test/GTS_ofcomfinal
nProcs : 1
trapFpe: Floating point exception trapping enabled (FOAM_SIGFPE).
fileModificationChecking : Monitoring run-time modified files using timeStampMaster (fileModificationSkew 10)
allowSystemOperations : Allowing user-supplied system call operations

// * * * * * * * * * * * * * * * * * * * * * * * * * * * * * * * * * * * * * //
Create time

Create mesh for time = 3

Mesh size: 25500068
Before renumbering :
    band           : 11041839
    profile        : 8.43918e+12

Using default renumberMethod.

Selecting renumberMethod CuthillMcKee


After renumbering :
    band           : 475564
    profile        : 8.63996e+12

Writing mesh to "4"
End

