/*---------------------------------------------------------------------------*\
  =========                 |
  \\      /  F ield         | OpenFOAM: The Open Source CFD Toolbox
   \\    /   O peration     | Website:  https://openfoam.org
    \\  /    A nd           | Version:  7
     \\/     M anipulation  |
\*---------------------------------------------------------------------------*/
Build  : 7
Exec   : checkMesh
Date   : Sep 21 2022
Time   : 11:38:01
Host   : "compute-0-6.local"
PID    : 170987
I/O    : uncollated
Case   : /share/storage/finzeo/Mallas/GTSTunay/gtsconverted28
nProcs : 1
sigFpe : Enabling floating point exception trapping (FOAM_SIGFPE).
fileModificationChecking : Monitoring run-time modified files using timeStampMaster (fileModificationSkew 10)
allowSystemOperations : Allowing user-supplied system call operations

// * * * * * * * * * * * * * * * * * * * * * * * * * * * * * * * * * * * * * //
Create time

Create polyMesh for time = 0

Time = 0

Mesh stats
    points:           43559324
    faces:            125098918
    internal faces:   122836301
    cells:            40784828
    faces per cell:   6.0791
    boundary patches: 6
    point zones:      0
    face zones:       0
    cell zones:       0

Overall number of cells of each type:
    hexahedra:     39145306
    prisms:        114507
    wedges:        0
    pyramids:      0
    tet wedges:    398
    tetrahedra:    0
    polyhedra:     1524617
    Breakdown of polyhedra by number of faces:
        faces   number of cells
            4   21383
            5   14130
            6   113141
            7   451313
            8   101960
            9   740579
           10   49
           11   7
           12   72537
           13   2
           15   9393
           18   123

Checking topology...
    Boundary definition OK.
    Cell to face addressing OK.
    Point usage OK.
    Upper triangular ordering OK.
    Face vertices OK.
    Number of regions: 1 (OK).

Checking patch topology for multiply connected surfaces...
                   Patch    Faces   Points                  Surface topology
            frontAndBack    30444    31080  ok (non-closed singly connected)
                   inlet     3540     3660  ok (non-closed singly connected)
                  outlet     3540     3660  ok (non-closed singly connected)
               lowerWall    62640    63511  ok (non-closed singly connected)
               upperWall    15480    15799  ok (non-closed singly connected)
                gtsModel  2146973  2176328      ok (closed singly connected)

Checking geometry...
    Overall domain bounding box (-37.8 -18 -0.504) (117 18 32.4)
    Mesh has 3 geometric (non-empty/wedge) directions (1 1 1)
    Mesh has 3 solution (non-empty) directions (1 1 1)
    Boundary openness (-1.77208e-16 -1.41856e-16 3.90311e-14) OK.
    Max cell openness = 3.98683e-15 OK.
    Max aspect ratio = 159.075 OK.
    Minimum face area = 1.64444e-08. Maximum face area = 0.444805.  Face area magnitudes OK.
    Min volume = 3.16345e-10. Max volume = 0.25078.  Total volume = 183256.  Cell volumes OK.
    Mesh non-orthogonality Max: 64.2073 average: 4.9491
    Non-orthogonality check OK.
    Face pyramids OK.
    Max skewness = 2.87678 OK.
    Coupled point location match (average 0) OK.

Mesh OK.

End

