/*---------------------------------------------------------------------------*\
  =========                 |
  \\      /  F ield         | OpenFOAM: The Open Source CFD Toolbox
   \\    /   O peration     | Website:  https://openfoam.org
    \\  /    A nd           | Version:  7
     \\/     M anipulation  |
\*---------------------------------------------------------------------------*/
Build  : 7
Exec   : checkMesh
Date   : Oct 06 2022
Time   : 00:58:05
Host   : "compute-0-17.local"
PID    : 35053
I/O    : uncollated
Case   : /share/storage/finzeo/Mallas/GTSTunay/gts_mesh_medresolution
nProcs : 1
sigFpe : Enabling floating point exception trapping (FOAM_SIGFPE).
fileModificationChecking : Monitoring run-time modified files using timeStampMaster (fileModificationSkew 10)
allowSystemOperations : Allowing user-supplied system call operations

// * * * * * * * * * * * * * * * * * * * * * * * * * * * * * * * * * * * * * //
Create time

Create polyMesh for time = 0

Time = 0

Mesh stats
    points:           24841500
    faces:            69810607
    internal faces:   67658223
    cells:            22491620
    faces per cell:   6.112
    boundary patches: 6
    point zones:      0
    face zones:       0
    cell zones:       0

Overall number of cells of each type:
    hexahedra:     21436067
    prisms:        95373
    wedges:        0
    pyramids:      0
    tet wedges:    103
    tetrahedra:    0
    polyhedra:     960077
    Breakdown of polyhedra by number of faces:
        faces   number of cells
            4   5667
            5   4659
            6   92902
            7   67960
            8   7949
            9   716405
           10   56
           11   235
           12   60781
           15   3344
           18   119

Checking topology...
    Boundary definition OK.
    Cell to face addressing OK.
    Point usage OK.
    Upper triangular ordering OK.
    Face vertices OK.
    Number of regions: 1 (OK).

Checking patch topology for multiply connected surfaces...
                   Patch    Faces   Points                  Surface topology
            frontAndBack    29928    30562  ok (non-closed singly connected)
                   inlet     3480     3599  ok (non-closed singly connected)
                  outlet     3480     3599  ok (non-closed singly connected)
               lowerWall    62640    63511  ok (non-closed singly connected)
               upperWall    15480    15799  ok (non-closed singly connected)
                gtsModel  2037376  2050691      ok (closed singly connected)

Checking geometry...
    Overall domain bounding box (-37.8 -18 -0.504) (117 18 32.4)
    Mesh has 3 geometric (non-empty/wedge) directions (1 1 1)
    Mesh has 3 solution (non-empty) directions (1 1 1)
    Boundary openness (-3.16365e-17 -4.17482e-16 -7.72717e-14) OK.
    Max cell openness = 3.60289e-16 OK.
    Max aspect ratio = 6.82108 OK.
    Minimum face area = 7.16804e-07. Maximum face area = 0.432651.  Face area magnitudes OK.
    Min volume = 3.443e-09. Max volume = 0.246422.  Total volume = 183256.  Cell volumes OK.
    Mesh non-orthogonality Max: 64.2456 average: 6.00047
    Non-orthogonality check OK.
    Face pyramids OK.
    Max skewness = 2.35761 OK.
    Coupled point location match (average 0) OK.

Mesh OK.

End

