/*---------------------------------------------------------------------------*\
  =========                 |
  \\      /  F ield         | OpenFOAM: The Open Source CFD Toolbox
   \\    /   O peration     | Website:  https://openfoam.org
    \\  /    A nd           | Version:  7
     \\/     M anipulation  |
\*---------------------------------------------------------------------------*/
Build  : 7
Exec   : snappyHexMesh -parallel -overwrite
Date   : Sep 01 2022
Time   : 11:13:54
Host   : "compute-0-21.local"
PID    : 96145
I/O    : uncollated
Case   : /share/storage/finzeo/Mallas/GTSTunay/gtsconverted27
nProcs : 20
Slaves : 
19
(
"compute-0-21.local.96146"
"compute-0-21.local.96147"
"compute-0-21.local.96148"
"compute-0-21.local.96149"
"compute-0-21.local.96150"
"compute-0-21.local.96151"
"compute-0-21.local.96152"
"compute-0-21.local.96153"
"compute-0-21.local.96154"
"compute-0-21.local.96155"
"compute-0-21.local.96156"
"compute-0-21.local.96157"
"compute-0-21.local.96158"
"compute-0-21.local.96159"
"compute-0-21.local.96160"
"compute-0-21.local.96161"
"compute-0-21.local.96162"
"compute-0-21.local.96163"
"compute-0-21.local.96164"
)

Pstream initialized with:
    floatTransfer      : 0
    nProcsSimpleSum    : 0
    commsType          : nonBlocking
    polling iterations : 0
sigFpe : Enabling floating point exception trapping (FOAM_SIGFPE).
fileModificationChecking : Monitoring run-time modified files using timeStampMaster (fileModificationSkew 10)
allowSystemOperations : Allowing user-supplied system call operations

// * * * * * * * * * * * * * * * * * * * * * * * * * * * * * * * * * * * * * //
Create time

Create mesh for time = 0

Read mesh in = 0.12 s

Overall mesh bounding box  : (-37.8 -18 -0.50401) (117 18 32.4)
Relative tolerance         : 1e-06
Absolute matching distance : 0.000162301

Reading refinement surfaces.
--> FOAM Warning : 
    From function Foam::refinementSurfaces::refinementSurfaces(const Foam::searchableSurfaces&, const Foam::dictionary&, Foam::label)
    in file refinementSurfaces/refinementSurfaces.C at line 221
    Reading "/share/storage/finzeo/Mallas/GTSTunay/gtsconverted27/system/snappyHexMeshDict.castellatedMeshControls.refinementSurfaces" from line 136 to line 200
    Not all entries in refinementSurfaces dictionary were used. The following entries were not used : 
5
(
frontAndBack
inlet
lowerWall
outlet
upperWall
)

Read refinement surfaces in = 5.1 s

Reading refinement shells.
Refinement level according to distance to gtsModel
    level 6 for all cells within 0.03 metre.
Refinement level 1 for all cells inside refinementBox1
Refinement level 3 for all cells inside refinementBox2
Read refinement shells in = 0 s

Setting refinement level of surface to be consistent with shells.
Checked shell refinement in = 0 s

Reading features.
Read edgeMesh vehicleSurfaceMesh.eMesh
    points      : 3808
    edges       : 3808
    boundingBox : (-12.1967 -1.3 0) (0 1.3 3.6)

Refinement level according to distance to "vehicleSurfaceMesh.eMesh" (3808 points, 3808 edges).
    level 7 for all cells within 0 metre.
Read features in = 0.02 s


Determining initial surface intersections
-----------------------------------------

Edge intersection testing:
    Number of edges             : 2587170
    Number of edges to retest   : 2587170
    Number of intersected edges : 444
Calculated surface intersections in = 4.02 s

Initial mesh : cells:851400  faces:2587170  points:884744
Cells per refinement level:
    0	851400

Adding patches for surface regions
----------------------------------

Patch Type                Region                        
----- ----                ------                        
gtsModel:

[7]  Foam::decompositionMethod::New 
[7] {
[7]     numberOfSubdomains 20;
[7]     method          scotch;
[7]     simpleCoeffs
[7]     {
[7]         n               ( 4 1 1 );
[7]         delta           0.001;
[7]     }
[7]     hierarchicalCoeffs
[7]     {
[7]         n               ( 3 2 1 );
[7]         delta           0.001;
[7]         order           xyz;
[7]     }
[7]     manualCoeffs
[7]     {
[7]         dataFile        "cellDecomposition";
[7]     }
[7]     scotchCoeffs
[7]     {
[7]         processorWeights ( 1 1 1 1 1 1 1 1 1 1 1 1 1 1 1 1 1 1 1 1 );
[7]     }
[7] }
[7] 
[7] Selecting decompositionMethod scotch
[12]  Foam::decompositionMethod::New 
[12] {
[12]     numberOfSubdomains 20;
[12]     method          scotch;
[12]     simpleCoeffs
[12]     {
[12]         n               ( 4 1 1 );
[12]         delta           0.001;
[12]     }
[12]     hierarchicalCoeffs
[12]     {
[12]         n               ( 3 2 1 );
[12]         delta           0.001;
[12]         order           xyz;
[12]     }
[12]     manualCoeffs
[12]     {
[12]         dataFile        "cellDecomposition";
[12]     }
[12]     scotchCoeffs
[12]     {
[12]         processorWeights ( 1 1 1 1 1 1 1 1 1 1 1 1 1 1 1 1 1 1 1 1 );
[12]     }
[12] }
[12] 
[12] Selecting decompositionMethod scotch
[16]  Foam::decompositionMethod::New 
[16] {
[16]     numberOfSubdomains 20;
[16]     method          scotch;
[16]     simpleCoeffs
[16]     {
[16]         n               ( 4 1 1 );
[16]         delta           0.001;
[16]     }
[16]     hierarchicalCoeffs
[16]     {
[16]         n               ( 3 2 1 );
[16]         delta           0.001;
[16]         order           xyz;
[16]     }
[16]     manualCoeffs
[16]     {
[16]         dataFile        "cellDecomposition";
[16]     }
[16]     scotchCoeffs
[16]     {
[16]         processorWeights ( 1 1 1 1 1 1 1 1 1 1 1 1 1 1 1 1 1 1 1 1 );
[16]     }
[16] }
[16] 
[16] Selecting decompositionMethod scotch
[11]  Foam::decompositionMethod::New 
[11] {
[11]     numberOfSubdomains 20;
[11]     method          scotch;
[11]     simpleCoeffs
[11]     {
[11]         n               ( 4 1 1 );
[11]         delta           0.001;
[11]     }
[11]     hierarchicalCoeffs
[11]     {
[11]         n               ( 3 2 1 );
[11]         delta           0.001;
[11]         order           xyz;
[11]     }
[11]     manualCoeffs
[11]     {
[11]         dataFile        "cellDecomposition";
[11]     }
[11]     scotchCoeffs
[11]     {
[11]         processorWeights ( 1 1 1 1 1 1 1 1 1 1 1 1 1 1 1 1 1 1 1 1 );
[11]     }
[11] }
[11] 
[11] Selecting decompositionMethod scotch
[4]  Foam::decompositionMethod::New 
[4] {
[4]     numberOfSubdomains 20;
[4]     method          scotch;
[4]     simpleCoeffs
[4]     {
[4]         n               ( 4 1 1 );
[4]         delta           0.001;
[4]     }
[4]     hierarchicalCoeffs
[4]     {
[4]         n               ( 3 2 1 );
[4]         delta           0.001;
[4]         order           xyz;
[4]     }
[4]     manualCoeffs
[4]     {
[4]         dataFile        "cellDecomposition";
[4]     }
[4]     scotchCoeffs
[4]     {
[4]         processorWeights ( 1 1 1 1 1 1 1 1 1 1 1 1 1 1 1 1 1 1 1 1 );
[4]     }
[4] }
[4] 
[4] Selecting decompositionMethod scotch
[8]  Foam::decompositionMethod::New 
[8] {
[8]     numberOfSubdomains 20;
[8]     method          scotch;
[8]     simpleCoeffs
[8]     {
[8]         n               ( 4 1 1 );
[8]         delta           0.001;
[8]     }
[8]     hierarchicalCoeffs
[8]     {
[8]         n               ( 3 2 1 );
[8]         delta           0.001;
[8]         order           xyz;
[8]     }
[8]     manualCoeffs
[8]     {
[8]         dataFile        "cellDecomposition";
[8]     }
[8]     scotchCoeffs
[8]     {
[8]         processorWeights ( 1 1 1 1 1 1 1 1 1 1 1 1 1 1 1 1 1 1 1 1 );
[8]     }
[8] }
[8] 
[8] Selecting decompositionMethod scotch
[6]  Foam::decompositionMethod::New 
[6] {
[6]     numberOfSubdomains 20;
[6]     method          scotch;
[6]     simpleCoeffs
[6]     {
[6]         n               ( 4 1 1 );
[6]         delta           0.001;
[6]     }
[6]     hierarchicalCoeffs
[6]     {
[6]         n               ( 3 2 1 );
[6]         delta           0.001;
[6]         order           xyz;
[6]     }
[6]     manualCoeffs
[6]     {
[6]         dataFile        "cellDecomposition";
[6]     }
[6]     scotchCoeffs
[6]     {
[6]         processorWeights ( 1 1 1 1 1 1 1 1 1 1 1 1 1 1 1 1 1 1 1 1 );
[6]     }
[6] }
[6] 
[6] Selecting decompositionMethod scotch
[10]  Foam::decompositionMethod::New 
[10] {
[10]     numberOfSubdomains 20;
[10]     method          scotch;
[10]     simpleCoeffs
[10]     {
[10]         n               ( 4 1 1 );
[10]         delta           0.001;
[10]     }
[10]     hierarchicalCoeffs
[10]     {
[10]         n               ( 3 2 1 );
[10]         delta           0.001;
[10]         order           xyz;
[10]     }
[10]     manualCoeffs
[10]     {
[10]         dataFile        "cellDecomposition";
[10]     }
[10]     scotchCoeffs
[10]     {
[10]         processorWeights ( 1 1 1 1 1 1 1 1 1 1 1 1 1 1 1 1 1 1 1 1 );
[10]     }
[10] }
[10] 
[10] Selecting decompositionMethod scotch
[3]  Foam::decompositionMethod::New 
[3] {
[3]     numberOfSubdomains 20;
[3]     method          scotch;
[3]     simpleCoeffs
[3]     {
[3]         n               ( 4 1 1 );
[3]         delta           0.001;
[3]     }
[3]     hierarchicalCoeffs
[3]     {
[3]         n               ( 3 2 1 );
[3]         delta           0.001;
[3]         order           xyz;
[3]     }
[3]     manualCoeffs
[3]     {
[3]         dataFile        "cellDecomposition";
[3]     }
[3]     scotchCoeffs
[3]     {
[3]         processorWeights ( 1 1 1 1 1 1 1 1 1 1 1 1 1 1 1 1 1 1 1 1 );
[3]     }
[3] }
[3] 
[3] Selecting decompositionMethod scotch
[14]  Foam::decompositionMethod::New 
[14] {
[14]     numberOfSubdomains 20;
[14]     method          scotch;
[14]     simpleCoeffs
[14]     {
[14]         n               ( 4 1 1 );
[14]         delta           0.001;
[14]     }
[14]     hierarchicalCoeffs
[14]     {
[14]         n               ( 3 2 1 );
[14]         delta           0.001;
[14]         order           xyz;
[14]     }
[14]     manualCoeffs
[14]     {
[14]         dataFile        "cellDecomposition";
[14]     }
[14]     scotchCoeffs
[14]     {
[14]         processorWeights ( 1 1 1 1 1 1 1 1 1 1 1 1 1 1 1 1 1 1 1 1 );
[14]     }
[14] }
[14] 
[14] Selecting decompositionMethod scotch
[2]  Foam::decompositionMethod::New 
[2] {
[2]     numberOfSubdomains 20;
[2]     method          scotch;
[2]     simpleCoeffs
[2]     {
[2]         n               ( 4 1 1 );
[2]         delta           0.001;
[2]     }
[2]     hierarchicalCoeffs
[2]     {
[2]         n               ( 3 2 1 );
[2]         delta           0.001;
[2]         order           xyz;
[2]     }
[2]     manualCoeffs
[2]     {
[2]         dataFile        "cellDecomposition";
[2]     }
[2]     scotchCoeffs
[2]     {
[2]         processorWeights ( 1 1 1 1 1 1 1 1 1 1 1 1 1 1 1 1 1 1 1 1 );
[2]     }
[2] }
[2] 
[2] Selecting decompositionMethod scotch
[5]  Foam::decompositionMethod::New 
[5] {
[5]     numberOfSubdomains 20;
[5]     method          scotch;
[5]     simpleCoeffs
[5]     {
[5]         n               ( 4 1 1 );
[5]         delta           0.001;
[5]     }
[5]     hierarchicalCoeffs
[5]     {
[5]         n               ( 3 2 1 );
[5]         delta           0.001;
[5]         order           xyz;
[5]     }
[5]     manualCoeffs
[5]     {
[5]         dataFile        "cellDecomposition";
[5]     }
[5]     scotchCoeffs
[5]     {
[5]         processorWeights ( 1 1 1 1 1 1 1 1 1 1 1 1 1 1 1 1 1 1 1 1 );
[5]     }
[5] }
[5] 
[5] Selecting decompositionMethod scotch
5     wall                gtsModel                      

Added patches in = 0.03 s

[0]  Foam::decompositionMethod::New 
[0] {
[0]     numberOfSubdomains 20;
[0]     method          scotch;
[0]     simpleCoeffs
[0]     {
[0]         n               ( 4 1 1 );
[0]         delta           0.001;
[0]     }
[0]     hierarchicalCoeffs
[0]     {
[0]         n               ( 3 2 1 );
[0]         delta           0.001;
[0]         order           xyz;
[0]     }
[0]     manualCoeffs
[0]     {
[0]         dataFile        "cellDecomposition";
[0]     }
[0]     scotchCoeffs
[0]     {
[0]         processorWeights ( 1 1 1 1 1 1 1 1 1 1 1 1 1 1 1 1 1 1 1 1 );
[0]     }
[0] }
[0] 
[0] Selecting decompositionMethod scotch
Layer thickness specified as final layer and expansion ratio.
--> FOAM Warning : 
    From function Foam::labelHashSet Foam::polyBoundaryMesh::patchSet(const Foam::UList<Foam::wordRe>&, bool, bool) const
    in file meshes/polyMesh/polyBoundaryMesh/polyBoundaryMesh.C at line 804
    Cannot find any patch or group names matching bottomNoSlip
--> FOAM Warning : 
    From function Foam::layerParameters::layerParameters(const Foam::dictionary&, const Foam::polyBoundaryMesh&)
    in file snappyHexMeshDriver/layerParameters/layerParameters.C at line 279
    Reading "/share/storage/finzeo/Mallas/GTSTunay/gtsconverted27/system/snappyHexMeshDict.addLayersControls.layers" from line 329 to line 341
    Layer specification for bottomNoSlip does not match any patch.
Valid patches are 
14
(
frontAndBack
inlet
outlet
lowerWall
upperWall
gtsModel
procBoundary0to2
procBoundary0to4
procBoundary0to6
procBoundary0to8
procBoundary0to10
procBoundary0to12
procBoundary0to14
procBoundary0to16
)

--> FOAM Warning : 
    From function Foam::labelHashSet Foam::polyBoundaryMesh::patchSet(const Foam::UList<Foam::wordRe>&, bool, bool) const
    in file meshes/polyMesh/polyBoundaryMesh/polyBoundaryMesh.C at line 804
    Cannot find any patch or group names matching bottomSlip
--> FOAM Warning : 
    From function Foam::layerParameters::layerParameters(const Foam::dictionary&, const Foam::polyBoundaryMesh&)
    in file snappyHexMeshDriver/layerParameters/layerParameters.C at line 279
    Reading "/share/storage/finzeo/Mallas/GTSTunay/gtsconverted27/system/snappyHexMeshDict.addLayersControls.layers" from line 329 to line 341
    Layer specification for bottomSlip does not match any patch.
Valid patches are 
14
(
frontAndBack
inlet
outlet
lowerWall
upperWall
gtsModel
procBoundary0to2
procBoundary0to4
procBoundary0to6
procBoundary0to8
procBoundary0to10
procBoundary0to12
procBoundary0to14
procBoundary0to16
)


Refinement phase
----------------

[9]  Foam::decompositionMethod::New 
[9] {
[9]     numberOfSubdomains 20;
[9]     method          scotch;
[9]     simpleCoeffs
[9]     {
[9]         n               ( 4 1 1 );
[9]         delta           0.001;
[9]     }
[9]     hierarchicalCoeffs
[9]     {
[9]         n               ( 3 2 1 );
[9]         delta           0.001;
[9]         order           xyz;
[9]     }
[9]     manualCoeffs
[9]     {
[9]         dataFile        "cellDecomposition";
[9]     }
[9]     scotchCoeffs
[9]     {
[9]         processorWeights ( 1 1 1 1 1 1 1 1 1 1 1 1 1 1 1 1 1 1 1 1 );
[9]     }
[9] }
[9] 
[9] Selecting decompositionMethod scotch
[13]  Foam::decompositionMethod::New 
[13] {
[13]     numberOfSubdomains 20;
[13]     method          scotch;
[13]     simpleCoeffs
[13]     {
[13]         n               ( 4 1 1 );
[13]         delta           0.001;
[13]     }
[13]     hierarchicalCoeffs
[13]     {
[13]         n               ( 3 2 1 );
[13]         delta           0.001;
[13]         order           xyz;
[13]     }
[13]     manualCoeffs
[13]     {
[13]         dataFile        "cellDecomposition";
[13]     }
[13]     scotchCoeffs
[13]     {
[13]         processorWeights ( 1 1 1 1 1 1 1 1 1 1 1 1 1 1 1 1 1 1 1 1 );
[13]     }
[13] }
[13] 
[13] Selecting decompositionMethod scotch
[17]  Foam::decompositionMethod::New 
[17] {
[17]     numberOfSubdomains 20;
[17]     method          scotch;
[17]     simpleCoeffs
[17]     {
[17]         n               ( 4 1 1 );
[17]         delta           0.001;
[17]     }
[17]     hierarchicalCoeffs
[17]     {
[17]         n               ( 3 2 1 );
[17]         delta           0.001;
[17]         order           xyz;
[17]     }
[17]     manualCoeffs
[17]     {
[17]         dataFile        "cellDecomposition";
[17]     }
[17]     scotchCoeffs
[17]     {
[17]         processorWeights ( 1 1 1 1 1 1 1 1 1 1 1 1 1 1 1 1 1 1 1 1 );
[17]     }
[17] }
[17] 
[17] Selecting decompositionMethod scotch
[15]  Foam::decompositionMethod::New 
[15] {
[15]     numberOfSubdomains 20;
[15]     method          scotch;
[15]     simpleCoeffs
[15]     {
[15]         n               ( 4 1 1 );
[15]         delta           0.001;
[15]     }
[15]     hierarchicalCoeffs
[15]     {
[15]         n               ( 3 2 1 );
[15]         delta           0.001;
[15]         order           xyz;
[15]     }
[15]     manualCoeffs
[15]     {
[15]         dataFile        "cellDecomposition";
[15]     }
[15]     scotchCoeffs
[15]     {
[15]         processorWeights ( 1 1 1 1 1 1 1 1 1 1 1 1 1 1 1 1 1 1 1 1 );
[15]     }
[15] }
[15] 
[15] Selecting decompositionMethod scotch
[18]  Foam::decompositionMethod::New 
[18] {
[18]     numberOfSubdomains 20;
[18]     method          scotch;
[18]     simpleCoeffs
[18]     {
[18]         n               ( 4 1 1 );
[18]         delta           0.001;
[18]     }
[18]     hierarchicalCoeffs
[18]     {
[18]         n               ( 3 2 1 );
[18]         delta           0.001;
[18]         order           xyz;
[18]     }
[18]     manualCoeffs
[18]     {
[18]         dataFile        "cellDecomposition";
[18]     }
[18]     scotchCoeffs
[18]     {
[18]         processorWeights ( 1 1 1 1 1 1 1 1 1 1 1 1 1 1 1 1 1 1 1 1 );
[18]     }
[18] }
[18] 
[18] Selecting decompositionMethod scotch
[1]  Foam::decompositionMethod::New 
[1] {
[1]     numberOfSubdomains 20;
[1]     method          scotch;
[1]     simpleCoeffs
[1]     {
[1]         n               ( 4 1 1 );
[1]         delta           0.001;
[1]     }
[1]     hierarchicalCoeffs
[1]     {
[1]         n               ( 3 2 1 );
[1]         delta           0.001;
[1]         order           xyz;
[1]     }
[1]     manualCoeffs
[1]     {
[1]         dataFile        "cellDecomposition";
[1]     }
[1]     scotchCoeffs
[1]     {
[1]         processorWeights ( 1 1 1 1 1 1 1 1 1 1 1 1 1 1 1 1 1 1 1 1 );
[1]     }
[1] }
[1] 
[1] Selecting decompositionMethod scotch
[19]  Foam::decompositionMethod::New 
[19] {
[19]     numberOfSubdomains 20;
[19]     method          scotch;
[19]     simpleCoeffs
[19]     {
[19]         n               ( 4 1 1 );
[19]         delta           0.001;
[19]     }
[19]     hierarchicalCoeffs
[19]     {
[19]         n               ( 3 2 1 );
[19]         delta           0.001;
[19]         order           xyz;
[19]     }
[19]     manualCoeffs
[19]     {
[19]         dataFile        "cellDecomposition";
[19]     }
[19]     scotchCoeffs
[19]     {
[19]         processorWeights ( 1 1 1 1 1 1 1 1 1 1 1 1 1 1 1 1 1 1 1 1 );
[19]     }
[19] }
[19] 
[19] Selecting decompositionMethod scotch
Found point (80.0001 0.0001 15.43) in cell 37105 on processor 0

Feature refinement iteration 0
------------------------------

Marked for refinement due to explicit features             : 102 cells.
Determined cells to refine in = 0.51 s
Selected for feature refinement : 102 cells (out of 851400)
Edge intersection testing:
    Number of edges             : 2589918
    Number of edges to retest   : 4598
    Number of intersected edges : 580
Refined mesh in = 0.42 s
After refinement feature refinement iteration 0 : cells:852114  faces:2589918  points:886164
Cells per refinement level:
    0	851298
    1	816
Skipping balancing since max unbalance 0.0107734 is less than allowable 0.1

Feature refinement iteration 1
------------------------------

Marked for refinement due to explicit features             : 192 cells.
Determined cells to refine in = 0.57 s
Selected for feature refinement : 366 cells (out of 852114)
Edge intersection testing:
    Number of edges             : 2599218
    Number of edges to retest   : 13983
    Number of intersected edges : 2149
Refined mesh in = 0.37 s
After refinement feature refinement iteration 1 : cells:854676  faces:2599218  points:890516
Cells per refinement level:
    0	851124
    1	2016
    2	1536
Skipping balancing since max unbalance 0.0285494 is less than allowable 0.1

Feature refinement iteration 2
------------------------------

Marked for refinement due to explicit features             : 382 cells.
Determined cells to refine in = 0.58 s
Selected for feature refinement : 828 cells (out of 854676)
Edge intersection testing:
    Number of edges             : 2619972
    Number of edges to retest   : 31199
    Number of intersected edges : 5198
Refined mesh in = 0.4 s
After refinement feature refinement iteration 2 : cells:860472  faces:2619972  points:900048
Cells per refinement level:
    0	851036
    1	2362
    2	4018
    3	3056
Skipping balancing since max unbalance 0.083281 is less than allowable 0.1

Feature refinement iteration 3
------------------------------

Marked for refinement due to explicit features             : 773 cells.
Determined cells to refine in = 0.63 s
Selected for feature refinement : 2014 cells (out of 860472)
Edge intersection testing:
    Number of edges             : 2670378
    Number of edges to retest   : 75272
    Number of intersected edges : 10863
Refined mesh in = 0.44 s
After refinement feature refinement iteration 3 : cells:874570  faces:2670378  points:923017
Cells per refinement level:
    0	850913
    1	2973
    2	6257
    3	8243
    4	6184
Balanced mesh in = 4.8 s
After balancing feature refinement iteration 3 : cells:874570  faces:2670378  points:923017
Cells per refinement level:
    0	850913
    1	2973
    2	6257
    3	8243
    4	6184

Feature refinement iteration 4
------------------------------

Marked for refinement due to explicit features             : 1541 cells.
Determined cells to refine in = 0.53 s
Selected for feature refinement : 3943 cells (out of 874570)
Edge intersection testing:
    Number of edges             : 2768682
    Number of edges to retest   : 148682
    Number of intersected edges : 24402
Refined mesh in = 0.51 s
After refinement feature refinement iteration 4 : cells:902171  faces:2768682  points:967625
Cells per refinement level:
    0	850890
    1	2986
    2	6910
    3	12470
    4	16587
    5	12328
Balanced mesh in = 4.78 s
After balancing feature refinement iteration 4 : cells:902171  faces:2768682  points:967625
Cells per refinement level:
    0	850890
    1	2986
    2	6910
    3	12470
    4	16587
    5	12328

Feature refinement iteration 5
------------------------------

Marked for refinement due to explicit features             : 3103 cells.
Determined cells to refine in = 0.59 s
Selected for feature refinement : 7977 cells (out of 902171)
Edge intersection testing:
    Number of edges             : 2967072
    Number of edges to retest   : 302810
    Number of intersected edges : 37528
Refined mesh in = 0.64 s
After refinement feature refinement iteration 5 : cells:958010  faces:2967072  points:1057418
Cells per refinement level:
    0	850890
    1	2980
    2	6598
    3	13895
    4	25174
    5	33649
    6	24824
Balanced mesh in = 5.16 s
After balancing feature refinement iteration 5 : cells:958010  faces:2967072  points:1057418
Cells per refinement level:
    0	850890
    1	2980
    2	6598
    3	13895
    4	25174
    5	33649
    6	24824

Feature refinement iteration 6
------------------------------

Marked for refinement due to explicit features             : 6213 cells.
Determined cells to refine in = 0.68 s
Selected for feature refinement : 16151 cells (out of 958010)
Edge intersection testing:
    Number of edges             : 3367992
    Number of edges to retest   : 617162
    Number of intersected edges : 79732
Refined mesh in = 0.85 s
After refinement feature refinement iteration 6 : cells:1071067  faces:3367992  points:1238406
Cells per refinement level:
    0	850862
    1	3150
    2	6905
    3	14182
    4	27973
    5	50776
    6	67515
    7	49704
Balanced mesh in = 5.27 s
After balancing feature refinement iteration 6 : cells:1071067  faces:3367992  points:1238406
Cells per refinement level:
    0	850862
    1	3150
    2	6905
    3	14182
    4	27973
    5	50776
    6	67515
    7	49704

Feature refinement iteration 7
------------------------------

Marked for refinement due to explicit features             : 0 cells.
Determined cells to refine in = 0.74 s
Selected for feature refinement : 0 cells (out of 1071067)
Stopping refining since too few cells selected.


Surface refinement iteration 0
------------------------------

Marked for refinement due to surface intersection          : 34322 cells.
Marked for refinement due to curvature/regions             : 9044 cells.
Determined cells to refine in = 0.06 s
Selected for refinement : 47475 cells (out of 1071067)
Edge intersection testing:
    Number of edges             : 4446108
    Number of edges to retest   : 1591890
    Number of intersected edges : 160486
Refined mesh in = 1.32 s
After refinement surface refinement iteration 0 : cells:1403392  faces:4446108  points:1651677
Cells per refinement level:
    0	850348
    1	6243
    2	12675
    3	27231
    4	67103
    5	102601
    6	215135
    7	122056
Balanced mesh in = 6.21 s
After balancing surface refinement iteration 0 : cells:1403392  faces:4446108  points:1651677
Cells per refinement level:
    0	850348
    1	6243
    2	12675
    3	27231
    4	67103
    5	102601
    6	215135
    7	122056

Surface refinement iteration 1
------------------------------

Marked for refinement due to surface intersection          : 58303 cells.
Marked for refinement due to curvature/regions             : 336 cells.
Determined cells to refine in = 0.14 s
Selected for refinement : 63950 cells (out of 1403392)
Edge intersection testing:
    Number of edges             : 5879514
    Number of edges to retest   : 2105411
    Number of intersected edges : 249121
Refined mesh in = 1.18 s
After refinement surface refinement iteration 1 : cells:1851042  faces:5879514  points:2189530
Cells per refinement level:
    0	850286
    1	4460
    2	26731
    3	52100
    4	112198
    5	262996
    6	417527
    7	124744
Balanced mesh in = 7.32 s
After balancing surface refinement iteration 1 : cells:1851042  faces:5879514  points:2189530
Cells per refinement level:
    0	850286
    1	4460
    2	26731
    3	52100
    4	112198
    5	262996
    6	417527
    7	124744

Surface refinement iteration 2
------------------------------

Marked for refinement due to surface intersection          : 131720 cells.
Marked for refinement due to curvature/regions             : 66 cells.
Determined cells to refine in = 0.16 s
Selected for refinement : 144240 cells (out of 1851042)
Edge intersection testing:
    Number of edges             : 9105921
    Number of edges to retest   : 4334611
    Number of intersected edges : 448057
Refined mesh in = 1.79 s
After refinement surface refinement iteration 2 : cells:2860722  faces:9105921  points:3396177
Cells per refinement level:
    0	850120
    1	4928
    2	24922
    3	105496
    4	207036
    5	451463
    6	1091485
    7	125272
Balanced mesh in = 10.44 s
After balancing surface refinement iteration 2 : cells:2860722  faces:9105921  points:3396177
Cells per refinement level:
    0	850120
    1	4928
    2	24922
    3	105496
    4	207036
    5	451463
    6	1091485
    7	125272

Surface refinement iteration 3
------------------------------

Marked for refinement due to surface intersection          : 189793 cells.
Marked for refinement due to curvature/regions             : 208 cells.
Determined cells to refine in = 0.19 s
Selected for refinement : 208162 cells (out of 2860722)
Edge intersection testing:
    Number of edges             : 13762776
    Number of edges to retest   : 6098646
    Number of intersected edges : 736589
Refined mesh in = 2.6 s
After refinement surface refinement iteration 3 : cells:4317856  faces:13762776  points:5138072
Cells per refinement level:
    0	850116
    1	4926
    2	21826
    3	98917
    4	410877
    5	859525
    6	1944733
    7	126936
Balanced mesh in = 15.15 s
After balancing surface refinement iteration 3 : cells:4317856  faces:13762776  points:5138072
Cells per refinement level:
    0	850116
    1	4926
    2	21826
    3	98917
    4	410877
    5	859525
    6	1944733
    7	126936

Surface refinement iteration 4
------------------------------

Marked for refinement due to surface intersection          : 332520 cells.
Marked for refinement due to curvature/regions             : 84 cells.
Determined cells to refine in = 0.25 s
Selected for refinement : 365230 cells (out of 4317856)
Balanced mesh in = 16.07 s
After balancing surface refinement iteration 4 : cells:4317856  faces:13762776  points:5138072
Cells per refinement level:
    0	850116
    1	4926
    2	21826
    3	98917
    4	410877
    5	859525
    6	1944733
    7	126936
Edge intersection testing:
    Number of edges             : 21935241
    Number of edges to retest   : 10447639
    Number of intersected edges : 1244543
Refined mesh in = 3.16 s
After refinement surface refinement iteration 4 : cells:6874466  faces:21935241  points:8195974
Cells per refinement level:
    0	850110
    1	4940
    2	21950
    3	88057
    4	373074
    5	1714006
    6	3694721
    7	127608

Surface refinement iteration 5
------------------------------

Marked for refinement due to surface intersection          : 454948 cells.
Marked for refinement due to curvature/regions             : 2 cells.
Determined cells to refine in = 0.4 s
Selected for refinement : 502781 cells (out of 6874466)
Balanced mesh in = 26.98 s
After balancing surface refinement iteration 5 : cells:6874466  faces:21935241  points:8195974
Cells per refinement level:
    0	850110
    1	4940
    2	21950
    3	88057
    4	373074
    5	1714006
    6	3694721
    7	127608
Edge intersection testing:
    Number of edges             : 33192177
    Number of edges to retest   : 14233623
    Number of intersected edges : 1955384
Refined mesh in = 5.52 s
After refinement surface refinement iteration 5 : cells:10393933  faces:33192177  points:12411367
Cells per refinement level:
    0	850106
    1	4958
    2	21956
    3	88349
    4	329841
    5	1641036
    6	7330063
    7	127624

Surface refinement iteration 6
------------------------------

Marked for refinement due to surface intersection          : 2109 cells.
Marked for refinement due to curvature/regions             : 0 cells.
Determined cells to refine in = 0.68 s
Selected for refinement : 2332 cells (out of 10393933)
Skipping balancing since max unbalance 0.0162746 is less than allowable 0.1
After balancing surface refinement iteration 6 : cells:10393933  faces:33192177  points:12411367
Cells per refinement level:
    0	850106
    1	4958
    2	21956
    3	88349
    4	329841
    5	1641036
    6	7330063
    7	127624
Edge intersection testing:
    Number of edges             : 33245358
    Number of edges to retest   : 102402
    Number of intersected edges : 1960556
Refined mesh in = 3.72 s
After refinement surface refinement iteration 6 : cells:10410257  faces:33245358  points:12431634
Cells per refinement level:
    0	850106
    1	4958
    2	21956
    3	88313
    4	329934
    5	1640495
    6	7346871
    7	127624

Surface refinement iteration 7
------------------------------

Marked for refinement due to surface intersection          : 69 cells.
Marked for refinement due to curvature/regions             : 0 cells.
Determined cells to refine in = 0.67 s
Selected for refinement : 75 cells (out of 10410257)
Skipping balancing since max unbalance 0.0165327 is less than allowable 0.1
After balancing surface refinement iteration 7 : cells:10410257  faces:33245358  points:12431634
Cells per refinement level:
    0	850106
    1	4958
    2	21956
    3	88313
    4	329934
    5	1640495
    6	7346871
    7	127624
Edge intersection testing:
    Number of edges             : 33246930
    Number of edges to retest   : 7652
    Number of intersected edges : 1960556
Refined mesh in = 3.65 s
After refinement surface refinement iteration 7 : cells:10410782  faces:33246930  points:12432156
Cells per refinement level:
    0	850106
    1	4958
    2	21956
    3	88313
    4	329928
    5	1640474
    6	7347423
    7	127624

Surface refinement iteration 8
------------------------------

Marked for refinement due to surface intersection          : 0 cells.
Marked for refinement due to curvature/regions             : 0 cells.
Determined cells to refine in = 0.65 s
Selected for refinement : 0 cells (out of 10410782)
Stopping refining since too few cells selected.


Removing mesh beyond surface intersections
------------------------------------------

Found point (80.0001 0.0001 15.43) in global region 0 out of 2 regions.
Keeping all cells in region 0 containing point (80.0001 0.0001 15.43)
Selected for keeping : 7019962 cells.
Edge intersection testing:
    Number of edges             : 23102965
    Number of edges to retest   : 1899410
    Number of intersected edges : 1960556

Shell refinement iteration 0
----------------------------

Marked for refinement due to distance to explicit features : 0 cells.
Marked for refinement due to refinement shells             : 475453 cells.
Determined cells to refine in = 16.31 s
Selected for internal refinement : 1041433 cells (out of 7019962)
Balanced mesh in = 22.18 s
After balancing shell refinement iteration 0 : cells:7019962  faces:23102965  points:9068039
Cells per refinement level:
    0	850000
    1	3796
    2	15426
    3	40348
    4	213346
    5	843431
    6	4928794
    7	124821
Edge intersection testing:
    Number of edges             : 45123256
    Number of edges to retest   : 33921732
    Number of intersected edges : 2029442
Refined mesh in = 6.4 s
After refinement shell refinement iteration 0 : cells:14309993  faces:45123256  points:16508391
Cells per refinement level:
    0	784840
    1	521280
    2	30368
    3	130561
    4	353243
    5	1125044
    6	10643820
    7	720837

Shell refinement iteration 1
----------------------------

Marked for refinement due to distance to explicit features : 0 cells.
Marked for refinement due to refinement shells             : 62494 cells.
Determined cells to refine in = 1.02 s
Selected for internal refinement : 206825 cells (out of 14309993)
Balanced mesh in = 38.64 s
After balancing shell refinement iteration 1 : cells:14309993  faces:45123256  points:16508402
Cells per refinement level:
    0	784840
    1	521280
    2	30368
    3	130561
    4	353243
    5	1125044
    6	10643820
    7	720837
Edge intersection testing:
    Number of edges             : 49506679
    Number of edges to retest   : 8223720
    Number of intersected edges : 2030919
Refined mesh in = 6.04 s
After refinement shell refinement iteration 1 : cells:15757768  faces:49506679  points:17996368
Cells per refinement level:
    0	784840
    1	489616
    2	253312
    3	363646
    4	340827
    5	1834508
    6	10787734
    7	903285

Shell refinement iteration 2
----------------------------

Marked for refinement due to distance to explicit features : 0 cells.
Marked for refinement due to refinement shells             : 237276 cells.
Determined cells to refine in = 1.21 s
Selected for internal refinement : 267431 cells (out of 15757768)
Balanced mesh in = 48.32 s
After balancing shell refinement iteration 2 : cells:15757768  faces:49506679  points:17996377
Cells per refinement level:
    0	784840
    1	489616
    2	253312
    3	363646
    4	340827
    5	1834508
    6	10787734
    7	903285
Edge intersection testing:
    Number of edges             : 55160134
    Number of edges to retest   : 7160186
    Number of intersected edges : 2031074
Refined mesh in = 7.47 s
After refinement shell refinement iteration 2 : cells:17629785  faces:55160134  points:19905925
Cells per refinement level:
    0	784840
    1	479800
    2	94564
    3	2245609
    4	466975
    5	1864916
    6	10788244
    7	904837

Shell refinement iteration 3
----------------------------

Marked for refinement due to distance to explicit features : 0 cells.
Marked for refinement due to refinement shells             : 1748 cells.
Determined cells to refine in = 1.55 s
Selected for internal refinement : 3626 cells (out of 17629785)
Skipping balancing since max unbalance 0.0300429 is less than allowable 0.1
After balancing shell refinement iteration 3 : cells:17629785  faces:55160134  points:19905925
Cells per refinement level:
    0	784840
    1	479800
    2	94564
    3	2245609
    4	466975
    5	1864916
    6	10788244
    7	904837
Edge intersection testing:
    Number of edges             : 55237804
    Number of edges to retest   : 185608
    Number of intersected edges : 2031240
Refined mesh in = 6.78 s
After refinement shell refinement iteration 3 : cells:17655167  faces:55237804  points:19932825
Cells per refinement level:
    0	784840
    1	479760
    2	93136
    3	2258004
    4	479661
    5	1865094
    6	10788291
    7	906381

Shell refinement iteration 4
----------------------------

Marked for refinement due to distance to explicit features : 0 cells.
Marked for refinement due to refinement shells             : 0 cells.
Determined cells to refine in = 1.54 s
Selected for internal refinement : 237 cells (out of 17655167)
Skipping balancing since max unbalance 0.0299462 is less than allowable 0.1
After balancing shell refinement iteration 4 : cells:17655167  faces:55237804  points:19932825
Cells per refinement level:
    0	784840
    1	479760
    2	93136
    3	2258004
    4	479661
    5	1865094
    6	10788291
    7	906381
Edge intersection testing:
    Number of edges             : 55243027
    Number of edges to retest   : 13719
    Number of intersected edges : 2031381
Refined mesh in = 6.68 s
After refinement shell refinement iteration 4 : cells:17656826  faces:55243027  points:19934730
Cells per refinement level:
    0	784840
    1	479760
    2	93136
    3	2257990
    4	479764
    5	1865136
    6	10788347
    7	907853

Shell refinement iteration 5
----------------------------

Marked for refinement due to distance to explicit features : 0 cells.
Marked for refinement due to refinement shells             : 0 cells.
Determined cells to refine in = 1.53 s
Selected for internal refinement : 230 cells (out of 17656826)
Skipping balancing since max unbalance 0.0298522 is less than allowable 0.1
After balancing shell refinement iteration 5 : cells:17656826  faces:55243027  points:19934730
Cells per refinement level:
    0	784840
    1	479760
    2	93136
    3	2257990
    4	479764
    5	1865136
    6	10788347
    7	907853
Edge intersection testing:
    Number of edges             : 55248103
    Number of edges to retest   : 12605
    Number of intersected edges : 2031525
Refined mesh in = 6.25 s
After refinement shell refinement iteration 5 : cells:17658436  faces:55248103  points:19936586
Cells per refinement level:
    0	784840
    1	479760
    2	93136
    3	2257984
    4	479808
    5	1865141
    6	10788370
    7	909397

Shell refinement iteration 6
----------------------------

Marked for refinement due to distance to explicit features : 0 cells.
Marked for refinement due to refinement shells             : 0 cells.
Determined cells to refine in = 1.53 s
Selected for internal refinement : 231 cells (out of 17658436)
Skipping balancing since max unbalance 0.029758 is less than allowable 0.1
After balancing shell refinement iteration 6 : cells:17658436  faces:55248103  points:19936586
Cells per refinement level:
    0	784840
    1	479760
    2	93136
    3	2257984
    4	479808
    5	1865141
    6	10788370
    7	909397
Edge intersection testing:
    Number of edges             : 55253200
    Number of edges to retest   : 12679
    Number of intersected edges : 2031669
Refined mesh in = 6.23 s
After refinement shell refinement iteration 6 : cells:17660053  faces:55253200  points:19938449
Cells per refinement level:
    0	784840
    1	479760
    2	93136
    3	2257984
    4	479798
    5	1865192
    6	10788410
    7	910933

Shell refinement iteration 7
----------------------------

Marked for refinement due to distance to explicit features : 0 cells.
Marked for refinement due to refinement shells             : 0 cells.
Determined cells to refine in = 1.52 s
Selected for internal refinement : 224 cells (out of 17660053)
Skipping balancing since max unbalance 0.0296665 is less than allowable 0.1
After balancing shell refinement iteration 7 : cells:17660053  faces:55253200  points:19938449
Cells per refinement level:
    0	784840
    1	479760
    2	93136
    3	2257984
    4	479798
    5	1865192
    6	10788410
    7	910933
Edge intersection testing:
    Number of edges             : 55258144
    Number of edges to retest   : 12154
    Number of intersected edges : 2031813
Refined mesh in = 6.21 s
After refinement shell refinement iteration 7 : cells:17661621  faces:55258144  points:19940257
Cells per refinement level:
    0	784840
    1	479760
    2	93136
    3	2257984
    4	479794
    5	1865196
    6	10788442
    7	912469

Shell refinement iteration 8
----------------------------

Marked for refinement due to distance to explicit features : 0 cells.
Marked for refinement due to refinement shells             : 0 cells.
Determined cells to refine in = 1.52 s
Selected for internal refinement : 231 cells (out of 17661621)
Skipping balancing since max unbalance 0.0295723 is less than allowable 0.1
After balancing shell refinement iteration 8 : cells:17661621  faces:55258144  points:19940257
Cells per refinement level:
    0	784840
    1	479760
    2	93136
    3	2257984
    4	479794
    5	1865196
    6	10788442
    7	912469
Edge intersection testing:
    Number of edges             : 55263241
    Number of edges to retest   : 12660
    Number of intersected edges : 2031957
Refined mesh in = 6.22 s
After refinement shell refinement iteration 8 : cells:17663238  faces:55263241  points:19942120
Cells per refinement level:
    0	784840
    1	479760
    2	93136
    3	2257984
    4	479784
    5	1865248
    6	10788473
    7	914013

Shell refinement iteration 9
----------------------------

Marked for refinement due to distance to explicit features : 0 cells.
Marked for refinement due to refinement shells             : 0 cells.
Determined cells to refine in = 1.52 s
Selected for internal refinement : 229 cells (out of 17663238)
Skipping balancing since max unbalance 0.0294788 is less than allowable 0.1
After balancing shell refinement iteration 9 : cells:17663238  faces:55263241  points:19942120
Cells per refinement level:
    0	784840
    1	479760
    2	93136
    3	2257984
    4	479784
    5	1865248
    6	10788473
    7	914013
Edge intersection testing:
    Number of edges             : 55268296
    Number of edges to retest   : 12568
    Number of intersected edges : 2032101
Refined mesh in = 6.24 s
After refinement shell refinement iteration 9 : cells:17664841  faces:55268296  points:19943969
Cells per refinement level:
    0	784840
    1	479760
    2	93136
    3	2257978
    4	479828
    5	1865252
    6	10788506
    7	915541

Shell refinement iteration 10
----------------------------

Marked for refinement due to distance to explicit features : 0 cells.
Marked for refinement due to refinement shells             : 0 cells.
Determined cells to refine in = 1.52 s
Selected for internal refinement : 231 cells (out of 17664841)
Skipping balancing since max unbalance 0.0293846 is less than allowable 0.1
After balancing shell refinement iteration 10 : cells:17664841  faces:55268296  points:19943969
Cells per refinement level:
    0	784840
    1	479760
    2	93136
    3	2257978
    4	479828
    5	1865252
    6	10788506
    7	915541
Edge intersection testing:
    Number of edges             : 55273393
    Number of edges to retest   : 12660
    Number of intersected edges : 2032245
Refined mesh in = 6.22 s
After refinement shell refinement iteration 10 : cells:17666458  faces:55273393  points:19945832
Cells per refinement level:
    0	784840
    1	479760
    2	93136
    3	2257978
    4	479818
    5	1865304
    6	10788537
    7	917085

Shell refinement iteration 11
----------------------------

Marked for refinement due to distance to explicit features : 0 cells.
Marked for refinement due to refinement shells             : 0 cells.
Determined cells to refine in = 1.53 s
Selected for internal refinement : 222 cells (out of 17666458)
Skipping balancing since max unbalance 0.0292941 is less than allowable 0.1
After balancing shell refinement iteration 11 : cells:17666458  faces:55273393  points:19945832
Cells per refinement level:
    0	784840
    1	479760
    2	93136
    3	2257978
    4	479818
    5	1865304
    6	10788537
    7	917085
Edge intersection testing:
    Number of edges             : 55278295
    Number of edges to retest   : 12056
    Number of intersected edges : 2032389
Refined mesh in = 6.2 s
After refinement shell refinement iteration 11 : cells:17668012  faces:55278295  points:19947626
Cells per refinement level:
    0	784840
    1	479760
    2	93136
    3	2257978
    4	479814
    5	1865308
    6	10788571
    7	918605

Shell refinement iteration 12
----------------------------

Marked for refinement due to distance to explicit features : 0 cells.
Marked for refinement due to refinement shells             : 0 cells.
Determined cells to refine in = 1.54 s
Selected for internal refinement : 230 cells (out of 17668012)
Skipping balancing since max unbalance 0.0292003 is less than allowable 0.1
After balancing shell refinement iteration 12 : cells:17668012  faces:55278295  points:19947626
Cells per refinement level:
    0	784840
    1	479760
    2	93136
    3	2257978
    4	479814
    5	1865308
    6	10788571
    7	918605
Edge intersection testing:
    Number of edges             : 55283371
    Number of edges to retest   : 12656
    Number of intersected edges : 2032533
Refined mesh in = 6.2 s
After refinement shell refinement iteration 12 : cells:17669622  faces:55283371  points:19949482
Cells per refinement level:
    0	784840
    1	479760
    2	93136
    3	2257978
    4	479804
    5	1865360
    6	10788603
    7	920141

Shell refinement iteration 13
----------------------------

Marked for refinement due to distance to explicit features : 0 cells.
Marked for refinement due to refinement shells             : 0 cells.
Determined cells to refine in = 1.53 s
Selected for internal refinement : 231 cells (out of 17669622)
Skipping balancing since max unbalance 0.0291061 is less than allowable 0.1
After balancing shell refinement iteration 13 : cells:17669622  faces:55283371  points:19949482
Cells per refinement level:
    0	784840
    1	479760
    2	93136
    3	2257978
    4	479804
    5	1865360
    6	10788603
    7	920141
Edge intersection testing:
    Number of edges             : 55288468
    Number of edges to retest   : 12696
    Number of intersected edges : 2032677
Refined mesh in = 6.2 s
After refinement shell refinement iteration 13 : cells:17671239  faces:55288468  points:19951345
Cells per refinement level:
    0	784840
    1	479760
    2	93136
    3	2257972
    4	479848
    5	1865364
    6	10788634
    7	921685

Shell refinement iteration 14
----------------------------

Marked for refinement due to distance to explicit features : 0 cells.
Marked for refinement due to refinement shells             : 0 cells.
Determined cells to refine in = 1.52 s
Selected for internal refinement : 231 cells (out of 17671239)
Skipping balancing since max unbalance 0.0290119 is less than allowable 0.1
After balancing shell refinement iteration 14 : cells:17671239  faces:55288468  points:19951345
Cells per refinement level:
    0	784840
    1	479760
    2	93136
    3	2257972
    4	479848
    5	1865364
    6	10788634
    7	921685
Edge intersection testing:
    Number of edges             : 55293565
    Number of edges to retest   : 12660
    Number of intersected edges : 2032821
Refined mesh in = 6.25 s
After refinement shell refinement iteration 14 : cells:17672856  faces:55293565  points:19953208
Cells per refinement level:
    0	784840
    1	479760
    2	93136
    3	2257972
    4	479838
    5	1865416
    6	10788665
    7	923229

Shell refinement iteration 15
----------------------------

Marked for refinement due to distance to explicit features : 0 cells.
Marked for refinement due to refinement shells             : 0 cells.
Determined cells to refine in = 1.54 s
Selected for internal refinement : 222 cells (out of 17672856)
Skipping balancing since max unbalance 0.0289215 is less than allowable 0.1
After balancing shell refinement iteration 15 : cells:17672856  faces:55293565  points:19953208
Cells per refinement level:
    0	784840
    1	479760
    2	93136
    3	2257972
    4	479838
    5	1865416
    6	10788665
    7	923229
Edge intersection testing:
    Number of edges             : 55298467
    Number of edges to retest   : 12056
    Number of intersected edges : 2032965
Refined mesh in = 6.22 s
After refinement shell refinement iteration 15 : cells:17674410  faces:55298467  points:19955002
Cells per refinement level:
    0	784840
    1	479760
    2	93136
    3	2257972
    4	479834
    5	1865420
    6	10788699
    7	924749

Shell refinement iteration 16
----------------------------

Marked for refinement due to distance to explicit features : 0 cells.
Marked for refinement due to refinement shells             : 0 cells.
Determined cells to refine in = 1.52 s
Selected for internal refinement : 232 cells (out of 17674410)
Skipping balancing since max unbalance 0.0288269 is less than allowable 0.1
After balancing shell refinement iteration 16 : cells:17674410  faces:55298467  points:19955002
Cells per refinement level:
    0	784840
    1	479760
    2	93136
    3	2257972
    4	479834
    5	1865420
    6	10788699
    7	924749
Edge intersection testing:
    Number of edges             : 55303585
    Number of edges to retest   : 12724
    Number of intersected edges : 2033109
Refined mesh in = 6.22 s
After refinement shell refinement iteration 16 : cells:17676034  faces:55303585  points:19956872
Cells per refinement level:
    0	784840
    1	479760
    2	93136
    3	2257972
    4	479824
    5	1865472
    6	10788729
    7	926301

Shell refinement iteration 17
----------------------------

Marked for refinement due to distance to explicit features : 0 cells.
Marked for refinement due to refinement shells             : 0 cells.
Determined cells to refine in = 1.52 s
Selected for internal refinement : 229 cells (out of 17676034)
Skipping balancing since max unbalance 0.0287336 is less than allowable 0.1
After balancing shell refinement iteration 17 : cells:17676034  faces:55303585  points:19956872
Cells per refinement level:
    0	784840
    1	479760
    2	93136
    3	2257972
    4	479824
    5	1865472
    6	10788729
    7	926301
Edge intersection testing:
    Number of edges             : 55308640
    Number of edges to retest   : 12568
    Number of intersected edges : 2033253
Refined mesh in = 6.22 s
After refinement shell refinement iteration 17 : cells:17677637  faces:55308640  points:19958721
Cells per refinement level:
    0	784840
    1	479760
    2	93136
    3	2257966
    4	479868
    5	1865476
    6	10788762
    7	927829

Shell refinement iteration 18
----------------------------

Marked for refinement due to distance to explicit features : 0 cells.
Marked for refinement due to refinement shells             : 0 cells.
Determined cells to refine in = 1.52 s
Selected for internal refinement : 231 cells (out of 17677637)
Skipping balancing since max unbalance 0.0286396 is less than allowable 0.1
After balancing shell refinement iteration 18 : cells:17677637  faces:55308640  points:19958721
Cells per refinement level:
    0	784840
    1	479760
    2	93136
    3	2257966
    4	479868
    5	1865476
    6	10788762
    7	927829
Edge intersection testing:
    Number of edges             : 55313740
    Number of edges to retest   : 12584
    Number of intersected edges : 2033400
Refined mesh in = 6.22 s
After refinement shell refinement iteration 18 : cells:17679254  faces:55313740  points:19960587
Cells per refinement level:
    0	784840
    1	479760
    2	93136
    3	2257966
    4	479858
    5	1865529
    6	10788784
    7	929381

Shell refinement iteration 19
----------------------------

Marked for refinement due to distance to explicit features : 0 cells.
Marked for refinement due to refinement shells             : 0 cells.
Determined cells to refine in = 1.52 s
Selected for internal refinement : 222 cells (out of 17679254)
Skipping balancing since max unbalance 0.0285491 is less than allowable 0.1
After balancing shell refinement iteration 19 : cells:17679254  faces:55313740  points:19960587
Cells per refinement level:
    0	784840
    1	479760
    2	93136
    3	2257966
    4	479858
    5	1865529
    6	10788784
    7	929381
Edge intersection testing:
    Number of edges             : 55318639
    Number of edges to retest   : 11993
    Number of intersected edges : 2033541
Refined mesh in = 6.24 s
After refinement shell refinement iteration 19 : cells:17680808  faces:55318639  points:19962378
Cells per refinement level:
    0	784840
    1	479760
    2	93136
    3	2257966
    4	479856
    5	1865516
    6	10788825
    7	930909

Shell refinement iteration 20
----------------------------

Marked for refinement due to distance to explicit features : 0 cells.
Marked for refinement due to refinement shells             : 0 cells.
Determined cells to refine in = 1.53 s
Selected for internal refinement : 231 cells (out of 17680808)
Skipping balancing since max unbalance 0.0284958 is less than allowable 0.1
After balancing shell refinement iteration 20 : cells:17680808  faces:55318639  points:19962378
Cells per refinement level:
    0	784840
    1	479760
    2	93136
    3	2257966
    4	479856
    5	1865516
    6	10788825
    7	930909
Edge intersection testing:
    Number of edges             : 55323739
    Number of edges to retest   : 12801
    Number of intersected edges : 2033685
Refined mesh in = 6.23 s
After refinement shell refinement iteration 20 : cells:17682425  faces:55323739  points:19964244
Cells per refinement level:
    0	784840
    1	479760
    2	93136
    3	2257966
    4	479844
    5	1865583
    6	10788867
    7	932429

Shell refinement iteration 21
----------------------------

Marked for refinement due to distance to explicit features : 0 cells.
Marked for refinement due to refinement shells             : 0 cells.
Determined cells to refine in = 1.52 s
Selected for internal refinement : 231 cells (out of 17682425)
Skipping balancing since max unbalance 0.0295814 is less than allowable 0.1
After balancing shell refinement iteration 21 : cells:17682425  faces:55323739  points:19964244
Cells per refinement level:
    0	784840
    1	479760
    2	93136
    3	2257966
    4	479844
    5	1865583
    6	10788867
    7	932429
Edge intersection testing:
    Number of edges             : 55328836
    Number of edges to retest   : 12696
    Number of intersected edges : 2033829
Refined mesh in = 6.22 s
After refinement shell refinement iteration 21 : cells:17684042  faces:55328836  points:19966107
Cells per refinement level:
    0	784840
    1	479760
    2	93136
    3	2257960
    4	479888
    5	1865587
    6	10788898
    7	933973

Shell refinement iteration 22
----------------------------

Marked for refinement due to distance to explicit features : 0 cells.
Marked for refinement due to refinement shells             : 0 cells.
Determined cells to refine in = 1.52 s
Selected for internal refinement : 230 cells (out of 17684042)
Skipping balancing since max unbalance 0.0306592 is less than allowable 0.1
After balancing shell refinement iteration 22 : cells:17684042  faces:55328836  points:19966107
Cells per refinement level:
    0	784840
    1	479760
    2	93136
    3	2257960
    4	479888
    5	1865587
    6	10788898
    7	933973
Edge intersection testing:
    Number of edges             : 55333912
    Number of edges to retest   : 12629
    Number of intersected edges : 2033973
Refined mesh in = 6.22 s
After refinement shell refinement iteration 22 : cells:17685652  faces:55333912  points:19967963
Cells per refinement level:
    0	784840
    1	479760
    2	93136
    3	2257960
    4	479878
    5	1865639
    6	10788930
    7	935509

Shell refinement iteration 23
----------------------------

Marked for refinement due to distance to explicit features : 0 cells.
Marked for refinement due to refinement shells             : 0 cells.
Determined cells to refine in = 1.53 s
Selected for internal refinement : 225 cells (out of 17685652)
Skipping balancing since max unbalance 0.0317468 is less than allowable 0.1
After balancing shell refinement iteration 23 : cells:17685652  faces:55333912  points:19967963
Cells per refinement level:
    0	784840
    1	479760
    2	93136
    3	2257960
    4	479878
    5	1865639
    6	10788930
    7	935509
Edge intersection testing:
    Number of edges             : 55338877
    Number of edges to retest   : 12194
    Number of intersected edges : 2034117
Refined mesh in = 6.23 s
After refinement shell refinement iteration 23 : cells:17687227  faces:55338877  points:19969778
Cells per refinement level:
    0	784840
    1	479760
    2	93136
    3	2257960
    4	479874
    5	1865643
    6	10788961
    7	937053

Shell refinement iteration 24
----------------------------

Marked for refinement due to distance to explicit features : 0 cells.
Marked for refinement due to refinement shells             : 0 cells.
Determined cells to refine in = 1.53 s
Selected for internal refinement : 232 cells (out of 17687227)
Skipping balancing since max unbalance 0.0328393 is less than allowable 0.1
After balancing shell refinement iteration 24 : cells:17687227  faces:55338877  points:19969778
Cells per refinement level:
    0	784840
    1	479760
    2	93136
    3	2257960
    4	479874
    5	1865643
    6	10788961
    7	937053
Edge intersection testing:
    Number of edges             : 55343989
    Number of edges to retest   : 12652
    Number of intersected edges : 2034264
Refined mesh in = 6.24 s
After refinement shell refinement iteration 24 : cells:17688851  faces:55343989  points:19971642
Cells per refinement level:
    0	784840
    1	479760
    2	93136
    3	2257960
    4	479864
    5	1865695
    6	10788991
    7	938605

Shell refinement iteration 25
----------------------------

Marked for refinement due to distance to explicit features : 0 cells.
Marked for refinement due to refinement shells             : 0 cells.
Determined cells to refine in = 1.53 s
Selected for internal refinement : 219 cells (out of 17688851)
Skipping balancing since max unbalance 0.0338419 is less than allowable 0.1
After balancing shell refinement iteration 25 : cells:17688851  faces:55343989  points:19971642
Cells per refinement level:
    0	784840
    1	479760
    2	93136
    3	2257960
    4	479864
    5	1865695
    6	10788991
    7	938605
Edge intersection testing:
    Number of edges             : 55348801
    Number of edges to retest   : 11786
    Number of intersected edges : 2034399
Refined mesh in = 6.23 s
After refinement shell refinement iteration 25 : cells:17690384  faces:55348801  points:19973384
Cells per refinement level:
    0	784840
    1	479760
    2	93136
    3	2257955
    4	479902
    5	1865684
    6	10789022
    7	940085

Shell refinement iteration 26
----------------------------

Marked for refinement due to distance to explicit features : 0 cells.
Marked for refinement due to refinement shells             : 0 cells.
Determined cells to refine in = 1.52 s
Selected for internal refinement : 179 cells (out of 17690384)
Skipping balancing since max unbalance 0.0345125 is less than allowable 0.1
After balancing shell refinement iteration 26 : cells:17690384  faces:55348801  points:19973384
Cells per refinement level:
    0	784840
    1	479760
    2	93136
    3	2257955
    4	479902
    5	1865684
    6	10789022
    7	940085
Edge intersection testing:
    Number of edges             : 55352719
    Number of edges to retest   : 10094
    Number of intersected edges : 2034504
Refined mesh in = 6.23 s
After refinement shell refinement iteration 26 : cells:17691637  faces:55352719  points:19974793
Cells per refinement level:
    0	784840
    1	479760
    2	93136
    3	2257955
    4	479893
    5	1865731
    6	10789077
    7	941245

Shell refinement iteration 27
----------------------------

Marked for refinement due to distance to explicit features : 0 cells.
Marked for refinement due to refinement shells             : 0 cells.
Determined cells to refine in = 1.53 s
Selected for internal refinement : 155 cells (out of 17691637)
Skipping balancing since max unbalance 0.0350346 is less than allowable 0.1
After balancing shell refinement iteration 27 : cells:17691637  faces:55352719  points:19974793
Cells per refinement level:
    0	784840
    1	479760
    2	93136
    3	2257955
    4	479893
    5	1865731
    6	10789077
    7	941245
Edge intersection testing:
    Number of edges             : 55356139
    Number of edges to retest   : 8520
    Number of intersected edges : 2034600
Refined mesh in = 6.23 s
After refinement shell refinement iteration 27 : cells:17692722  faces:55356139  points:19976043
Cells per refinement level:
    0	784840
    1	479760
    2	93136
    3	2257951
    4	479922
    5	1865735
    6	10789109
    7	942269

Shell refinement iteration 28
----------------------------

Marked for refinement due to distance to explicit features : 0 cells.
Marked for refinement due to refinement shells             : 0 cells.
Determined cells to refine in = 1.52 s
Selected for internal refinement : 156 cells (out of 17692722)
Skipping balancing since max unbalance 0.0355484 is less than allowable 0.1
After balancing shell refinement iteration 28 : cells:17692722  faces:55356139  points:19976043
Cells per refinement level:
    0	784840
    1	479760
    2	93136
    3	2257951
    4	479922
    5	1865735
    6	10789109
    7	942269
Edge intersection testing:
    Number of edges             : 55359583
    Number of edges to retest   : 8654
    Number of intersected edges : 2034696
Refined mesh in = 6.24 s
After refinement shell refinement iteration 28 : cells:17693814  faces:55359583  points:19977303
Cells per refinement level:
    0	784840
    1	479760
    2	93136
    3	2257950
    4	479922
    5	1865779
    6	10789142
    7	943285

Shell refinement iteration 29
----------------------------

Marked for refinement due to distance to explicit features : 0 cells.
Marked for refinement due to refinement shells             : 0 cells.
Determined cells to refine in = 1.51 s
Selected for internal refinement : 155 cells (out of 17693814)
Skipping balancing since max unbalance 0.0360624 is less than allowable 0.1
After balancing shell refinement iteration 29 : cells:17693814  faces:55359583  points:19977303
Cells per refinement level:
    0	784840
    1	479760
    2	93136
    3	2257950
    4	479922
    5	1865779
    6	10789142
    7	943285
Edge intersection testing:
    Number of edges             : 55363006
    Number of edges to retest   : 8488
    Number of intersected edges : 2034792
Refined mesh in = 6.23 s
After refinement shell refinement iteration 29 : cells:17694899  faces:55363006  points:19978556
Cells per refinement level:
    0	784840
    1	479760
    2	93136
    3	2257944
    4	479968
    5	1865777
    6	10789157
    7	944317

Shell refinement iteration 30
----------------------------

Marked for refinement due to distance to explicit features : 0 cells.
Marked for refinement due to refinement shells             : 0 cells.
Determined cells to refine in = 1.53 s
Selected for internal refinement : 155 cells (out of 17694899)
Skipping balancing since max unbalance 0.0365764 is less than allowable 0.1
After balancing shell refinement iteration 30 : cells:17694899  faces:55363006  points:19978556
Cells per refinement level:
    0	784840
    1	479760
    2	93136
    3	2257944
    4	479968
    5	1865777
    6	10789157
    7	944317
Edge intersection testing:
    Number of edges             : 55366429
    Number of edges to retest   : 8470
    Number of intersected edges : 2034888
Refined mesh in = 6.23 s
After refinement shell refinement iteration 30 : cells:17695984  faces:55366429  points:19979809
Cells per refinement level:
    0	784840
    1	479760
    2	93136
    3	2257944
    4	479962
    5	1865803
    6	10789206
    7	945333

Shell refinement iteration 31
----------------------------

Marked for refinement due to distance to explicit features : 0 cells.
Marked for refinement due to refinement shells             : 0 cells.
Determined cells to refine in = 1.53 s
Selected for internal refinement : 152 cells (out of 17695984)
Skipping balancing since max unbalance 0.0371153 is less than allowable 0.1
After balancing shell refinement iteration 31 : cells:17695984  faces:55366429  points:19979809
Cells per refinement level:
    0	784840
    1	479760
    2	93136
    3	2257944
    4	479962
    5	1865803
    6	10789206
    7	945333
Edge intersection testing:
    Number of edges             : 55369783
    Number of edges to retest   : 8337
    Number of intersected edges : 2034984
Refined mesh in = 6.24 s
After refinement shell refinement iteration 31 : cells:17697048  faces:55369783  points:19981035
Cells per refinement level:
    0	784840
    1	479760
    2	93136
    3	2257944
    4	479958
    5	1865815
    6	10789238
    7	946357

Shell refinement iteration 32
----------------------------

Marked for refinement due to distance to explicit features : 0 cells.
Marked for refinement due to refinement shells             : 0 cells.
Determined cells to refine in = 1.53 s
Selected for internal refinement : 157 cells (out of 17697048)
Skipping balancing since max unbalance 0.0376442 is less than allowable 0.1
After balancing shell refinement iteration 32 : cells:17697048  faces:55369783  points:19981035
Cells per refinement level:
    0	784840
    1	479760
    2	93136
    3	2257944
    4	479958
    5	1865815
    6	10789238
    7	946357
Edge intersection testing:
    Number of edges             : 55373245
    Number of edges to retest   : 8652
    Number of intersected edges : 2035080
Refined mesh in = 6.27 s
After refinement shell refinement iteration 32 : cells:17698147  faces:55373245  points:19982299
Cells per refinement level:
    0	784840
    1	479760
    2	93136
    3	2257944
    4	479950
    5	1865859
    6	10789269
    7	947389

Shell refinement iteration 33
----------------------------

Marked for refinement due to distance to explicit features : 0 cells.
Marked for refinement due to refinement shells             : 0 cells.
Determined cells to refine in = 1.52 s
Selected for internal refinement : 155 cells (out of 17698147)
Skipping balancing since max unbalance 0.038158 is less than allowable 0.1
After balancing shell refinement iteration 33 : cells:17698147  faces:55373245  points:19982299
Cells per refinement level:
    0	784840
    1	479760
    2	93136
    3	2257944
    4	479950
    5	1865859
    6	10789269
    7	947389
Edge intersection testing:
    Number of edges             : 55376668
    Number of edges to retest   : 8555
    Number of intersected edges : 2035176
Refined mesh in = 6.25 s
After refinement shell refinement iteration 33 : cells:17699232  faces:55376668  points:19983552
Cells per refinement level:
    0	784840
    1	479760
    2	93136
    3	2257938
    4	479996
    5	1865855
    6	10789302
    7	948405

Shell refinement iteration 34
----------------------------

Marked for refinement due to distance to explicit features : 0 cells.
Marked for refinement due to refinement shells             : 0 cells.
Determined cells to refine in = 1.51 s
Selected for internal refinement : 155 cells (out of 17699232)
Skipping balancing since max unbalance 0.0386718 is less than allowable 0.1
After balancing shell refinement iteration 34 : cells:17699232  faces:55376668  points:19983552
Cells per refinement level:
    0	784840
    1	479760
    2	93136
    3	2257938
    4	479996
    5	1865855
    6	10789302
    7	948405
Edge intersection testing:
    Number of edges             : 55380091
    Number of edges to retest   : 8528
    Number of intersected edges : 2035272
Refined mesh in = 6.27 s
After refinement shell refinement iteration 34 : cells:17700317  faces:55380091  points:19984805
Cells per refinement level:
    0	784840
    1	479760
    2	93136
    3	2257938
    4	479989
    5	1865891
    6	10789334
    7	949429

Shell refinement iteration 35
----------------------------

Marked for refinement due to distance to explicit features : 0 cells.
Marked for refinement due to refinement shells             : 0 cells.
Determined cells to refine in = 1.53 s
Selected for internal refinement : 151 cells (out of 17700317)
Skipping balancing since max unbalance 0.0392029 is less than allowable 0.1
After balancing shell refinement iteration 35 : cells:17700317  faces:55380091  points:19984805
Cells per refinement level:
    0	784840
    1	479760
    2	93136
    3	2257938
    4	479989
    5	1865891
    6	10789334
    7	949429
Edge intersection testing:
    Number of edges             : 55383424
    Number of edges to retest   : 8175
    Number of intersected edges : 2035368
Refined mesh in = 6.25 s
After refinement shell refinement iteration 35 : cells:17701374  faces:55383424  points:19986024
Cells per refinement level:
    0	784840
    1	479760
    2	93136
    3	2257938
    4	479987
    5	1865887
    6	10789365
    7	950461

Shell refinement iteration 36
----------------------------

Marked for refinement due to distance to explicit features : 0 cells.
Marked for refinement due to refinement shells             : 0 cells.
Determined cells to refine in = 1.52 s
Selected for internal refinement : 154 cells (out of 17701374)
Skipping balancing since max unbalance 0.0397091 is less than allowable 0.1
After balancing shell refinement iteration 36 : cells:17701374  faces:55383424  points:19986024
Cells per refinement level:
    0	784840
    1	479760
    2	93136
    3	2257938
    4	479987
    5	1865887
    6	10789365
    7	950461
Edge intersection testing:
    Number of edges             : 55386826
    Number of edges to retest   : 8452
    Number of intersected edges : 2035464
Refined mesh in = 6.24 s
After refinement shell refinement iteration 36 : cells:17702452  faces:55386826  points:19987270
Cells per refinement level:
    0	784840
    1	479760
    2	93136
    3	2257938
    4	479979
    5	1865932
    6	10789390
    7	951477

Shell refinement iteration 37
----------------------------

Marked for refinement due to distance to explicit features : 0 cells.
Marked for refinement due to refinement shells             : 0 cells.
Determined cells to refine in = 1.54 s
Selected for internal refinement : 158 cells (out of 17702452)
Skipping balancing since max unbalance 0.0402451 is less than allowable 0.1
After balancing shell refinement iteration 37 : cells:17702452  faces:55386826  points:19987270
Cells per refinement level:
    0	784840
    1	479760
    2	93136
    3	2257938
    4	479979
    5	1865932
    6	10789390
    7	951477
Edge intersection testing:
    Number of edges             : 55390312
    Number of edges to retest   : 8706
    Number of intersected edges : 2035560
Refined mesh in = 6.27 s
After refinement shell refinement iteration 37 : cells:17703558  faces:55390312  points:19988544
Cells per refinement level:
    0	784840
    1	479760
    2	93136
    3	2257932
    4	480025
    5	1865927
    6	10789429
    7	952509

Shell refinement iteration 38
----------------------------

Marked for refinement due to distance to explicit features : 0 cells.
Marked for refinement due to refinement shells             : 0 cells.
Determined cells to refine in = 1.52 s
Selected for internal refinement : 155 cells (out of 17703558)
Skipping balancing since max unbalance 0.0407586 is less than allowable 0.1
After balancing shell refinement iteration 38 : cells:17703558  faces:55390312  points:19988544
Cells per refinement level:
    0	784840
    1	479760
    2	93136
    3	2257932
    4	480025
    5	1865927
    6	10789429
    7	952509
Edge intersection testing:
    Number of edges             : 55393735
    Number of edges to retest   : 8549
    Number of intersected edges : 2035656
Refined mesh in = 6.27 s
After refinement shell refinement iteration 38 : cells:17704643  faces:55393735  points:19989797
Cells per refinement level:
    0	784840
    1	479760
    2	93136
    3	2257932
    4	480017
    5	1865971
    6	10789462
    7	953525

Shell refinement iteration 39
----------------------------

Marked for refinement due to distance to explicit features : 0 cells.
Marked for refinement due to refinement shells             : 0 cells.
Determined cells to refine in = 1.52 s
Selected for internal refinement : 151 cells (out of 17704643)
Skipping balancing since max unbalance 0.0412895 is less than allowable 0.1
After balancing shell refinement iteration 39 : cells:17704643  faces:55393735  points:19989797
Cells per refinement level:
    0	784840
    1	479760
    2	93136
    3	2257932
    4	480017
    5	1865971
    6	10789462
    7	953525
Edge intersection testing:
    Number of edges             : 55397068
    Number of edges to retest   : 8175
    Number of intersected edges : 2035752
Refined mesh in = 6.26 s
After refinement shell refinement iteration 39 : cells:17705700  faces:55397068  points:19991016
Cells per refinement level:
    0	784840
    1	479760
    2	93136
    3	2257932
    4	480015
    5	1865967
    6	10789493
    7	954557

Shell refinement iteration 40
----------------------------

Marked for refinement due to distance to explicit features : 0 cells.
Marked for refinement due to refinement shells             : 0 cells.
Determined cells to refine in = 1.53 s
Selected for internal refinement : 156 cells (out of 17705700)
Skipping balancing since max unbalance 0.0418104 is less than allowable 0.1
After balancing shell refinement iteration 40 : cells:17705700  faces:55397068  points:19991016
Cells per refinement level:
    0	784840
    1	479760
    2	93136
    3	2257932
    4	480015
    5	1865967
    6	10789493
    7	954557
Edge intersection testing:
    Number of edges             : 55400512
    Number of edges to retest   : 8583
    Number of intersected edges : 2035848
Refined mesh in = 6.26 s
After refinement shell refinement iteration 40 : cells:17706792  faces:55400512  points:19992276
Cells per refinement level:
    0	784840
    1	479760
    2	93136
    3	2257932
    4	480007
    5	1866011
    6	10789525
    7	955581

Shell refinement iteration 41
----------------------------

Marked for refinement due to distance to explicit features : 0 cells.
Marked for refinement due to refinement shells             : 0 cells.
Determined cells to refine in = 1.51 s
Selected for internal refinement : 155 cells (out of 17706792)
Skipping balancing since max unbalance 0.0423237 is less than allowable 0.1
After balancing shell refinement iteration 41 : cells:17706792  faces:55400512  points:19992276
Cells per refinement level:
    0	784840
    1	479760
    2	93136
    3	2257932
    4	480007
    5	1866011
    6	10789525
    7	955581
Edge intersection testing:
    Number of edges             : 55403935
    Number of edges to retest   : 8561
    Number of intersected edges : 2035944
Refined mesh in = 6.26 s
After refinement shell refinement iteration 41 : cells:17707877  faces:55403935  points:19993529
Cells per refinement level:
    0	784840
    1	479760
    2	93136
    3	2257926
    4	480053
    5	1866007
    6	10789558
    7	956597

Shell refinement iteration 42
----------------------------

Marked for refinement due to distance to explicit features : 0 cells.
Marked for refinement due to refinement shells             : 0 cells.
Determined cells to refine in = 1.51 s
Selected for internal refinement : 157 cells (out of 17707877)
Skipping balancing since max unbalance 0.0428519 is less than allowable 0.1
After balancing shell refinement iteration 42 : cells:17707877  faces:55403935  points:19993529
Cells per refinement level:
    0	784840
    1	479760
    2	93136
    3	2257926
    4	480053
    5	1866007
    6	10789558
    7	956597
Edge intersection testing:
    Number of edges             : 55407394
    Number of edges to retest   : 8643
    Number of intersected edges : 2036040
Refined mesh in = 6.28 s
After refinement shell refinement iteration 42 : cells:17708976  faces:55407394  points:19994790
Cells per refinement level:
    0	784840
    1	479760
    2	93136
    3	2257926
    4	480045
    5	1866051
    6	10789589
    7	957629

Shell refinement iteration 43
----------------------------

Marked for refinement due to distance to explicit features : 0 cells.
Marked for refinement due to refinement shells             : 0 cells.
Determined cells to refine in = 1.52 s
Selected for internal refinement : 140 cells (out of 17708976)
Skipping balancing since max unbalance 0.043316 is less than allowable 0.1
After balancing shell refinement iteration 43 : cells:17708976  faces:55407394  points:19994790
Cells per refinement level:
    0	784840
    1	479760
    2	93136
    3	2257926
    4	480045
    5	1866051
    6	10789589
    7	957629
Edge intersection testing:
    Number of edges             : 55410460
    Number of edges to retest   : 7398
    Number of intersected edges : 2036124
Refined mesh in = 6.27 s
After refinement shell refinement iteration 43 : cells:17709956  faces:55410460  points:19995892
Cells per refinement level:
    0	784840
    1	479760
    2	93136
    3	2257926
    4	480045
    5	1866029
    6	10789647
    7	958573

Shell refinement iteration 44
----------------------------

Marked for refinement due to distance to explicit features : 0 cells.
Marked for refinement due to refinement shells             : 0 cells.
Determined cells to refine in = 1.52 s
Selected for internal refinement : 99 cells (out of 17709956)
Skipping balancing since max unbalance 0.0434332 is less than allowable 0.1
After balancing shell refinement iteration 44 : cells:17709956  faces:55410460  points:19995892
Cells per refinement level:
    0	784840
    1	479760
    2	93136
    3	2257926
    4	480045
    5	1866029
    6	10789647
    7	958573
Edge intersection testing:
    Number of edges             : 55412617
    Number of edges to retest   : 5831
    Number of intersected edges : 2036181
Refined mesh in = 6.26 s
After refinement shell refinement iteration 44 : cells:17710649  faces:55412617  points:19996660
Cells per refinement level:
    0	784840
    1	479760
    2	93136
    3	2257926
    4	480036
    5	1866088
    6	10789674
    7	959189

Shell refinement iteration 45
----------------------------

Marked for refinement due to distance to explicit features : 0 cells.
Marked for refinement due to refinement shells             : 0 cells.
Determined cells to refine in = 1.52 s
Selected for internal refinement : 88 cells (out of 17710649)
Skipping balancing since max unbalance 0.043397 is less than allowable 0.1
After balancing shell refinement iteration 45 : cells:17710649  faces:55412617  points:19996660
Cells per refinement level:
    0	784840
    1	479760
    2	93136
    3	2257926
    4	480036
    5	1866088
    6	10789674
    7	959189
Edge intersection testing:
    Number of edges             : 55414555
    Number of edges to retest   : 5056
    Number of intersected edges : 2036229
Refined mesh in = 6.22 s
After refinement shell refinement iteration 45 : cells:17711265  faces:55414555  points:19997366
Cells per refinement level:
    0	784840
    1	479760
    2	93136
    3	2257917
    4	480106
    5	1866091
    6	10789714
    7	959701

Shell refinement iteration 46
----------------------------

Marked for refinement due to distance to explicit features : 0 cells.
Marked for refinement due to refinement shells             : 0 cells.
Determined cells to refine in = 1.53 s
Selected for internal refinement : 85 cells (out of 17711265)
Skipping balancing since max unbalance 0.0433619 is less than allowable 0.1
After balancing shell refinement iteration 46 : cells:17711265  faces:55414555  points:19997366
Cells per refinement level:
    0	784840
    1	479760
    2	93136
    3	2257917
    4	480106
[...]
    faces with face-decomposition tet quality < 1e-15      : 0
    faces with concavity > 80  degrees                     : 0
    faces with skewness > 4   (internal) or 20  (boundary) : 0
    faces with interpolation weights (0..1)  < 0.02        : 0
    faces with volume ratio of neighbour cells < 0.01      : 0
    faces with face twist < 0.02                           : 0
    faces on cells with determinant < 1e-05                : 0
displacementMedialAxis : Successfully moved mesh
displacementMedialAxis : Finished moving mesh ...
truncateDisplacement : Unextruded 0 faces due to non-consecutive vertices being extruded.
truncateDisplacement : Unextruded 0 faces due to stringed edges with inconsistent extrusion.

Setting up information for layer truncation ...

Checking mesh with layer ...
Checking faces in error :
    non-orthogonality > 65  degrees                        : 168
    faces with face pyramid volume < 1e-13                 : 0
    faces with face-decomposition tet quality < 1e-15      : 47703
    faces with concavity > 80  degrees                     : 0
    faces with skewness > 4   (internal) or 20  (boundary) : 0
    faces with interpolation weights (0..1)  < 0.02        : 0
    faces with volume ratio of neighbour cells < 0.01      : 0
    faces with face twist < 0.02                           : 20
    faces on cells with determinant < 1e-05                : 0
Detected 47891 illegal faces (concave, zero area or negative cell pyramid volume)
Extruding 2002789 out of 2021309 faces (99.0838%). Removed extrusion at 10457 faces.
Added 34445142 out of 34485193 cells (99.8839%).


Layer addition iteration 1
--------------------------

Determining displacement for added points according to pointNormal ...
Detected 0 points with point normal pointing through faces.
Reset displacement at 0 points to average of surrounding points.

displacementMedialAxis : Smoothing using Medial Axis ...
displacementMedialAxis : Reducing layer thickness at 7312 nodes where thickness to medial axis distance is large 
displacementMedialAxis : Removing isolated regions ...
displacementMedialAxis : Number of isolated points extrusion stopped : 2268
displacementMedialAxis : Smoothing field ...
    Iteration 0   residual 1.9006e-05
displacementMedialAxis : Moving mesh ...
displacementMedialAxis : Iteration 0
Moving mesh using displacement scaling : min:1  max:1
Checking faces in error :
    non-orthogonality > 65  degrees                        : 29
    faces with face pyramid volume < 1e-13                 : 0
    faces with face-decomposition tet quality < 1e-15      : 77
    faces with concavity > 80  degrees                     : 0
    faces with skewness > 4   (internal) or 20  (boundary) : 0
    faces with interpolation weights (0..1)  < 0.02        : 0
    faces with volume ratio of neighbour cells < 0.01      : 0
    faces with face twist < 0.02                           : 0
    faces on cells with determinant < 1e-05                : 0
displacementMedialAxis : Iteration 1
Moving mesh using displacement scaling : min:0.75  max:1
Checking faces in error :
    non-orthogonality > 65  degrees                        : 0
    faces with face pyramid volume < 1e-13                 : 0
    faces with face-decomposition tet quality < 1e-15      : 33
    faces with concavity > 80  degrees                     : 0
    faces with skewness > 4   (internal) or 20  (boundary) : 0
    faces with interpolation weights (0..1)  < 0.02        : 0
    faces with volume ratio of neighbour cells < 0.01      : 0
    faces with face twist < 0.02                           : 0
    faces on cells with determinant < 1e-05                : 0
displacementMedialAxis : Iteration 2
Moving mesh using displacement scaling : min:0.5625  max:1
Checking faces in error :
    non-orthogonality > 65  degrees                        : 0
    faces with face pyramid volume < 1e-13                 : 0
    faces with face-decomposition tet quality < 1e-15      : 22
    faces with concavity > 80  degrees                     : 0
    faces with skewness > 4   (internal) or 20  (boundary) : 0
    faces with interpolation weights (0..1)  < 0.02        : 0
    faces with volume ratio of neighbour cells < 0.01      : 0
    faces with face twist < 0.02                           : 0
    faces on cells with determinant < 1e-05                : 0
displacementMedialAxis : Iteration 3
displacementMedialAxis : Displacement scaling for error reduction set to 0.
Moving mesh using displacement scaling : min:0.421875  max:1
Checking faces in error :
    non-orthogonality > 65  degrees                        : 0
    faces with face pyramid volume < 1e-13                 : 0
    faces with face-decomposition tet quality < 1e-15      : 22
    faces with concavity > 80  degrees                     : 0
    faces with skewness > 4   (internal) or 20  (boundary) : 0
    faces with interpolation weights (0..1)  < 0.02        : 0
    faces with volume ratio of neighbour cells < 0.01      : 0
    faces with face twist < 0.02                           : 0
    faces on cells with determinant < 1e-05                : 0
displacementMedialAxis : Iteration 4
Moving mesh using displacement scaling : min:0  max:1
Checking faces in error :
    non-orthogonality > 65  degrees                        : 3
    faces with face pyramid volume < 1e-13                 : 0
    faces with face-decomposition tet quality < 1e-15      : 0
    faces with concavity > 80  degrees                     : 0
    faces with skewness > 4   (internal) or 20  (boundary) : 0
    faces with interpolation weights (0..1)  < 0.02        : 0
    faces with volume ratio of neighbour cells < 0.01      : 0
    faces with face twist < 0.02                           : 0
    faces on cells with determinant < 1e-05                : 0
displacementMedialAxis : Iteration 5
Moving mesh using displacement scaling : min:0  max:1
Checking faces in error :
    non-orthogonality > 65  degrees                        : 0
    faces with face pyramid volume < 1e-13                 : 0
    faces with face-decomposition tet quality < 1e-15      : 0
    faces with concavity > 80  degrees                     : 0
    faces with skewness > 4   (internal) or 20  (boundary) : 0
    faces with interpolation weights (0..1)  < 0.02        : 0
    faces with volume ratio of neighbour cells < 0.01      : 0
    faces with face twist < 0.02                           : 0
    faces on cells with determinant < 1e-05                : 0
displacementMedialAxis : Successfully moved mesh
displacementMedialAxis : Finished moving mesh ...
truncateDisplacement : Unextruded 35 faces due to non-consecutive vertices being extruded.
truncateDisplacement : Unextruded 0 faces due to stringed edges with inconsistent extrusion.
truncateDisplacement : Unextruded 0 faces due to non-consecutive vertices being extruded.
truncateDisplacement : Unextruded 0 faces due to stringed edges with inconsistent extrusion.

Setting up information for layer truncation ...

Checking mesh with layer ...
Checking faces in error :
    non-orthogonality > 65  degrees                        : 23
    faces with face pyramid volume < 1e-13                 : 0
    faces with face-decomposition tet quality < 1e-15      : 141
    faces with concavity > 80  degrees                     : 0
    faces with skewness > 4   (internal) or 20  (boundary) : 0
    faces with interpolation weights (0..1)  < 0.02        : 0
    faces with volume ratio of neighbour cells < 0.01      : 0
    faces with face twist < 0.02                           : 3
    faces on cells with determinant < 1e-05                : 0
Detected 167 illegal faces (concave, zero area or negative cell pyramid volume)
Extruding 1998842 out of 2021309 faces (98.8885%). Removed extrusion at 163 faces.
Added 33317549 out of 34485193 cells (96.6141%).


Layer addition iteration 2
--------------------------

Determining displacement for added points according to pointNormal ...
Detected 0 points with point normal pointing through faces.
Reset displacement at 0 points to average of surrounding points.

displacementMedialAxis : Smoothing using Medial Axis ...
displacementMedialAxis : Reducing layer thickness at 7312 nodes where thickness to medial axis distance is large 
displacementMedialAxis : Removing isolated regions ...
displacementMedialAxis : Number of isolated points extrusion stopped : 83
displacementMedialAxis : Smoothing field ...
    Iteration 0   residual 1.90942e-05
displacementMedialAxis : Moving mesh ...
displacementMedialAxis : Iteration 0
Moving mesh using displacement scaling : min:1  max:1
Checking faces in error :
    non-orthogonality > 65  degrees                        : 28
    faces with face pyramid volume < 1e-13                 : 0
    faces with face-decomposition tet quality < 1e-15      : 43
    faces with concavity > 80  degrees                     : 0
    faces with skewness > 4   (internal) or 20  (boundary) : 0
    faces with interpolation weights (0..1)  < 0.02        : 0
    faces with volume ratio of neighbour cells < 0.01      : 0
    faces with face twist < 0.02                           : 0
    faces on cells with determinant < 1e-05                : 0
displacementMedialAxis : Iteration 1
Moving mesh using displacement scaling : min:0.75  max:1
Checking faces in error :
    non-orthogonality > 65  degrees                        : 0
    faces with face pyramid volume < 1e-13                 : 0
    faces with face-decomposition tet quality < 1e-15      : 14
    faces with concavity > 80  degrees                     : 0
    faces with skewness > 4   (internal) or 20  (boundary) : 0
    faces with interpolation weights (0..1)  < 0.02        : 0
    faces with volume ratio of neighbour cells < 0.01      : 0
    faces with face twist < 0.02                           : 0
    faces on cells with determinant < 1e-05                : 0
displacementMedialAxis : Iteration 2
Moving mesh using displacement scaling : min:0.5625  max:1
Checking faces in error :
    non-orthogonality > 65  degrees                        : 0
    faces with face pyramid volume < 1e-13                 : 0
    faces with face-decomposition tet quality < 1e-15      : 6
    faces with concavity > 80  degrees                     : 0
    faces with skewness > 4   (internal) or 20  (boundary) : 0
    faces with interpolation weights (0..1)  < 0.02        : 0
    faces with volume ratio of neighbour cells < 0.01      : 0
    faces with face twist < 0.02                           : 0
    faces on cells with determinant < 1e-05                : 0
displacementMedialAxis : Iteration 3
displacementMedialAxis : Displacement scaling for error reduction set to 0.
Moving mesh using displacement scaling : min:0.421875  max:1
Checking faces in error :
    non-orthogonality > 65  degrees                        : 0
    faces with face pyramid volume < 1e-13                 : 0
    faces with face-decomposition tet quality < 1e-15      : 5
    faces with concavity > 80  degrees                     : 0
    faces with skewness > 4   (internal) or 20  (boundary) : 0
    faces with interpolation weights (0..1)  < 0.02        : 0
    faces with volume ratio of neighbour cells < 0.01      : 0
    faces with face twist < 0.02                           : 0
    faces on cells with determinant < 1e-05                : 0
displacementMedialAxis : Iteration 4
Moving mesh using displacement scaling : min:0  max:1
Checking faces in error :
    non-orthogonality > 65  degrees                        : 0
    faces with face pyramid volume < 1e-13                 : 0
    faces with face-decomposition tet quality < 1e-15      : 0
    faces with concavity > 80  degrees                     : 0
    faces with skewness > 4   (internal) or 20  (boundary) : 0
    faces with interpolation weights (0..1)  < 0.02        : 0
    faces with volume ratio of neighbour cells < 0.01      : 0
    faces with face twist < 0.02                           : 0
    faces on cells with determinant < 1e-05                : 0
displacementMedialAxis : Successfully moved mesh
displacementMedialAxis : Finished moving mesh ...
truncateDisplacement : Unextruded 7 faces due to non-consecutive vertices being extruded.
truncateDisplacement : Unextruded 0 faces due to stringed edges with inconsistent extrusion.
truncateDisplacement : Unextruded 0 faces due to non-consecutive vertices being extruded.
truncateDisplacement : Unextruded 0 faces due to stringed edges with inconsistent extrusion.

Setting up information for layer truncation ...

Checking mesh with layer ...
Checking faces in error :
    non-orthogonality > 65  degrees                        : 0
    faces with face pyramid volume < 1e-13                 : 0
    faces with face-decomposition tet quality < 1e-15      : 15
    faces with concavity > 80  degrees                     : 0
    faces with skewness > 4   (internal) or 20  (boundary) : 0
    faces with interpolation weights (0..1)  < 0.02        : 0
    faces with volume ratio of neighbour cells < 0.01      : 0
    faces with face twist < 0.02                           : 0
    faces on cells with determinant < 1e-05                : 0
Detected 15 illegal faces (concave, zero area or negative cell pyramid volume)
Extruding 1998683 out of 2021309 faces (98.8806%). Removed extrusion at 15 faces.
Added 33293493 out of 34485193 cells (96.5443%).


Layer addition iteration 3
--------------------------

Determining displacement for added points according to pointNormal ...
Detected 0 points with point normal pointing through faces.
Reset displacement at 0 points to average of surrounding points.

displacementMedialAxis : Smoothing using Medial Axis ...
displacementMedialAxis : Reducing layer thickness at 7312 nodes where thickness to medial axis distance is large 
displacementMedialAxis : Removing isolated regions ...
displacementMedialAxis : Number of isolated points extrusion stopped : 33
displacementMedialAxis : Smoothing field ...
    Iteration 0   residual 1.90735e-05
displacementMedialAxis : Moving mesh ...
displacementMedialAxis : Iteration 0
Moving mesh using displacement scaling : min:1  max:1
Checking faces in error :
    non-orthogonality > 65  degrees                        : 26
    faces with face pyramid volume < 1e-13                 : 0
    faces with face-decomposition tet quality < 1e-15      : 38
    faces with concavity > 80  degrees                     : 0
    faces with skewness > 4   (internal) or 20  (boundary) : 0
    faces with interpolation weights (0..1)  < 0.02        : 0
    faces with volume ratio of neighbour cells < 0.01      : 0
    faces with face twist < 0.02                           : 0
    faces on cells with determinant < 1e-05                : 0
displacementMedialAxis : Iteration 1
Moving mesh using displacement scaling : min:0.75  max:1
Checking faces in error :
    non-orthogonality > 65  degrees                        : 0
    faces with face pyramid volume < 1e-13                 : 0
    faces with face-decomposition tet quality < 1e-15      : 9
    faces with concavity > 80  degrees                     : 0
    faces with skewness > 4   (internal) or 20  (boundary) : 0
    faces with interpolation weights (0..1)  < 0.02        : 0
    faces with volume ratio of neighbour cells < 0.01      : 0
    faces with face twist < 0.02                           : 0
    faces on cells with determinant < 1e-05                : 0
displacementMedialAxis : Iteration 2
Moving mesh using displacement scaling : min:0.5625  max:1
Checking faces in error :
    non-orthogonality > 65  degrees                        : 0
    faces with face pyramid volume < 1e-13                 : 0
    faces with face-decomposition tet quality < 1e-15      : 1
    faces with concavity > 80  degrees                     : 0
    faces with skewness > 4   (internal) or 20  (boundary) : 0
    faces with interpolation weights (0..1)  < 0.02        : 0
    faces with volume ratio of neighbour cells < 0.01      : 0
    faces with face twist < 0.02                           : 0
    faces on cells with determinant < 1e-05                : 0
displacementMedialAxis : Iteration 3
displacementMedialAxis : Displacement scaling for error reduction set to 0.
Moving mesh using displacement scaling : min:0.421875  max:1
Checking faces in error :
    non-orthogonality > 65  degrees                        : 0
    faces with face pyramid volume < 1e-13                 : 0
    faces with face-decomposition tet quality < 1e-15      : 0
    faces with concavity > 80  degrees                     : 0
    faces with skewness > 4   (internal) or 20  (boundary) : 0
    faces with interpolation weights (0..1)  < 0.02        : 0
    faces with volume ratio of neighbour cells < 0.01      : 0
    faces with face twist < 0.02                           : 0
    faces on cells with determinant < 1e-05                : 0
displacementMedialAxis : Successfully moved mesh
displacementMedialAxis : Finished moving mesh ...
truncateDisplacement : Unextruded 1 faces due to non-consecutive vertices being extruded.
truncateDisplacement : Unextruded 0 faces due to stringed edges with inconsistent extrusion.
truncateDisplacement : Unextruded 0 faces due to non-consecutive vertices being extruded.
truncateDisplacement : Unextruded 0 faces due to stringed edges with inconsistent extrusion.

Setting up information for layer truncation ...

Checking mesh with layer ...
Checking faces in error :
    non-orthogonality > 65  degrees                        : 0
    faces with face pyramid volume < 1e-13                 : 0
    faces with face-decomposition tet quality < 1e-15      : 0
    faces with concavity > 80  degrees                     : 0
    faces with skewness > 4   (internal) or 20  (boundary) : 0
    faces with interpolation weights (0..1)  < 0.02        : 0
    faces with volume ratio of neighbour cells < 0.01      : 0
    faces with face twist < 0.02                           : 0
    faces on cells with determinant < 1e-05                : 0
Detected 0 illegal faces (concave, zero area or negative cell pyramid volume)
Extruding 1998631 out of 2021309 faces (98.8781%). Removed extrusion at 0 faces.
Added 33292187 out of 34485193 cells (96.5405%).
Edge intersection testing:
    Number of edges             : 149105726
    Number of edges to retest   : 0
    Number of intersected edges : 34084096

Doing final balancing
---------------------

Writing 33292187 added cells to cellSet addedCells
Writing 31286272 faces inside added layer to faceSet layerFaces

Writing fields with layer information:
    nSurfaceLayers    : actual number of layers
    thickness         : overall layer thickness
    thicknessFraction : overall layer thickness (fraction of desired thickness)


patch     faces    layers   overall thickness
                            [m]       [%]
-----     -----    ------   ---       ---
lowerWall 61470    19       0.278     93      
gtsModel  1959839  16.4     0.0113    97.9    

Layer mesh : cells:48920346  faces:149105726  points:51277891
Cells per refinement level:
    0	999920
    1	748002
    2	120496
    3	2915125
    4	480345
    5	1866434
    6	38757442
    7	3032582
Writing mesh to time constant
Wrote mesh in = 512.84 s.
Layers added in = 512.84 s.
Checking final mesh ...
Checking faces in error :
    non-orthogonality > 65  degrees                        : 0
    faces with face pyramid volume < 1e-13                 : 0
    faces with face-decomposition tet quality < 1e-15      : 0
    faces with concavity > 80  degrees                     : 0
    faces with skewness > 4   (internal) or 20  (boundary) : 0
    faces with interpolation weights (0..1)  < 0.02        : 0
    faces with volume ratio of neighbour cells < 0.01      : 0
    faces with face twist < 0.02                           : 0
    faces on cells with determinant < 1e-05                : 0
Finished meshing without any errors
Finished meshing in = 1807.6 s.
End

Finalising parallel run
