/*---------------------------------------------------------------------------*\
| =========                 |                                                 |
| \\      /  F ield         | OpenFOAM: The Open Source CFD Toolbox           |
|  \\    /   O peration     | Version:  v1812                                 |
|   \\  /    A nd           | Web:      www.OpenFOAM.com                      |
|    \\/     M anipulation  |                                                 |
\*---------------------------------------------------------------------------*/
Build  : v1812 OPENFOAM=1812
Arch   : "LSB;label=32;scalar=64"
Exec   : snappyHexMesh -parallel -decomposeParDict system/decomposeParDict.60 -dict system/snappyHexMeshLayersDict
Date   : Mar 22 2023
Time   : 14:05:57
Host   : compute-0-23.local
PID    : 158298
I/O    : uncollated
Case   : /share/storage/finzeo/Mallas/test/GTS_ofcom6
nProcs : 60
Hosts  :
(
    (compute-0-23.local 20)
    (compute-0-24.local 20)
    (compute-0-25.local 20)
)
Pstream initialized with:
    floatTransfer      : 0
    nProcsSimpleSum    : 0
    commsType          : nonBlocking
    polling iterations : 0
trapFpe: Floating point exception trapping enabled (FOAM_SIGFPE).
fileModificationChecking : Monitoring run-time modified files using timeStampMaster (fileModificationSkew 10)
allowSystemOperations : Allowing user-supplied system call operations

// * * * * * * * * * * * * * * * * * * * * * * * * * * * * * * * * * * * * * //
Create time

Create mesh for time = 2

Read mesh in = 0.85 s

Overall mesh bounding box  : (-7.33423 -1.55305 -0.0762) (4.37197 1.55305 2.0574)
Relative tolerance         : 1e-06
Absolute matching distance : 1.22978e-05

Reading refinement surfaces.
Read refinement surfaces in = 0.07 s

Reading refinement shells.
Refinement level according to distance to GTS-Storms-v8.stl
    level 5 for all cells within 0.015 metre.
Refinement level 1 for all cells inside refinementBox1
Refinement level 2 for all cells inside refinementBox2
Refinement level 3 for all cells inside refinementBox3
Read refinement shells in = 0 s

Setting refinement level of surface to be consistent with shells.
For geometry GTS-Storms-v8.stl detected 0 uncached triangles out of 17488
Checked shell refinement in = 0.17 s

Reading features.
Read features in = 0 s


Determining initial surface intersections
-----------------------------------------

Edge intersection testing:
    Number of edges             : 32659441
    Number of edges to retest   : 32659441
    Number of intersected edges : 815217
Calculated surface intersections in = 3.22 s

Initial mesh : cells:10591263  faces:32659441  points:11479155
Cells per refinement level:
    0	104568
    1	327394
    2	1166128
    3	3736868
    4	647638
    5	4608667

Adding patches for surface regions
----------------------------------

Patch Type                Region                        
----- ----                ------                        
gtsModel:

2     wall                gtsModel                      

inlet:

0     patch               inlet                         

outlet:

1     patch               outlet                        

left:

3     wall                left                          

right:

4     wall                right                         

top:

5     wall                top                           

floor:

6     wall                floor                         

Added patches in = 0.03 s

Edge intersection testing:
    Number of edges             : 32659441
    Number of edges to retest   : 817160
    Number of intersected edges : 817102
Selecting decompositionMethod hierarchical [60]
Layer thickness specified as first layer and expansion ratio.

Shrinking and layer addition phase
----------------------------------

Using mesh parameters 
{
    maxNonOrtho     65;
    maxBoundarySkewness 20;
    maxInternalSkewness 4;
    maxConcave      80;
    minVol          1e-13;
    minTetQuality   -1e+30;
    minArea         -1;
    minTwist        0.02;
    minDeterminant  1e-05;
    minFaceWeight   0.02;
    minVolRatio     0.01;
    minTriangleTwist -1;
    nSmoothScale    4;
    errorReduction  0.75;
    relaxed
    {
        maxNonOrtho     75;
    }
}



Merging all faces of a cell
---------------------------
    - which are on the same patch
    - which make an angle < 130 degrees (cos:-0.642788)
    - as long as the resulting face doesn't become concave by more than 90 degrees
      (0=straight, 180=fully concave)

Merging 266 sets of faces.

Edge intersection testing:
    Number of edges             : 32659103
    Number of edges to retest   : 1158
    Number of intersected edges : 816588

Undo iteration 0
----------------
Checking faces in error :
    non-orthogonality > 65  degrees                        : 0
    faces with face pyramid volume < 1e-13                 : 0
    faces with concavity > 80  degrees                     : 38
    faces with skewness > 4   (internal) or 20  (boundary) : 0
    faces with interpolation weights (0..1)  < 0.02        : 0
    faces with volume ratio of neighbour cells < 0.01      : 0
    faces with face twist < 0.02                           : 0
    faces on cells with determinant < 1e-05                : 0
Masters that need to be restored:38
Edge intersection testing:
    Number of edges             : 32659141
    Number of edges to retest   : 222
    Number of intersected edges : 816664


Undo iteration 1
----------------
Checking faces in error :
    non-orthogonality > 65  degrees                        : 0
    faces with face pyramid volume < 1e-13                 : 0
    faces with concavity > 80  degrees                     : 0
    faces with skewness > 4   (internal) or 20  (boundary) : 0
    faces with interpolation weights (0..1)  < 0.02        : 0
    faces with volume ratio of neighbour cells < 0.01      : 0
    faces with face twist < 0.02                           : 0
    faces on cells with determinant < 1e-05                : 0

Merging all points on surface that
- are used by only two boundary faces and
- make an angle with a cosine of more than -0.642788.

Removing 278 straight edge points ...

Edge intersection testing:
    Number of edges             : 32659141
    Number of edges to retest   : 1562
    Number of intersected edges : 816668

Undo iteration 0
----------------
Checking faces in error :
    non-orthogonality > 65  degrees                        : 0
    faces with face pyramid volume < 1e-13                 : 0
    faces with concavity > 80  degrees                     : 0
    faces with skewness > 4   (internal) or 20  (boundary) : 0
    faces with interpolation weights (0..1)  < 0.02        : 0
    faces with volume ratio of neighbour cells < 0.01      : 0
    faces with face twist < 0.02                           : 0
    faces on cells with determinant < 1e-05                : 0

Checking mesh manifoldness ...
Outside of mesh is multiply connected across edges or points.
This is not a fatal error but might cause some unexpected behaviour.


Checking initial mesh ...
Checking faces in error :
    non-orthogonality > 65  degrees                        : 0
    faces with face pyramid volume < 1e-13                 : 0
    faces with concavity > 80  degrees                     : 0
    faces with skewness > 4   (internal) or 20  (boundary) : 0
    faces with interpolation weights (0..1)  < 0.02        : 0
    faces with volume ratio of neighbour cells < 0.01      : 0
    faces with face twist < 0.02                           : 0
    faces on cells with determinant < 1e-05                : 0
Detected 0 illegal faces (concave, zero area or negative cell pyramid volume)
Duplicating 0 points on faceZones of type boundary

Handling points with inconsistent layer specification ...
dupNonManifoldPoints : Found : 0 non-manifold points (out of 12429812)

Adding in total 0 inter-processor patches to handle extrusion of non-manifold processor boundaries.

Handling points with inconsistent layer specification ...

Handling non-manifold points ...

Checking patch manifoldness ...
Outside of local patch is multiply connected across edges or points at 0 points.
Set displacement to zero for all 0 non-manifold points

Handling feature edges (angle < 130) ...
Set displacement to zero for points on 0 feature edges

patch    faces    layers avg thickness[m]
                         near-wall overall
-----    -----    ------ --------- -------
gtsModel 711242   14     0.00014   0.00567 

Selecting externalDisplacementMeshMover displacementMotionSolver
Selecting motion solver: displacementLaplacian
Selecting motion diffusion: quadratic
Selecting motion diffusion: inverseDistance
Selecting patchDistMethod meshWave

Layer addition iteration 0
--------------------------

Determining displacement for added points according to pointNormal ...
Detected 0 points with point normal pointing through faces.
Reset displacement at 0 points to average of surrounding points.

fieldSmoother : Smoothing field ...
    Iteration 0   residual 3.63859e-08
GAMG:  Solving for cellDisplacementx, Initial residual = 1, Final residual = 1.36016e-17, No Iterations 1
GAMG:  Solving for cellDisplacementy, Initial residual = 1, Final residual = 1.29916e-17, No Iterations 1
GAMG:  Solving for cellDisplacementz, Initial residual = 1, Final residual = 1.29364e-17, No Iterations 1
displacementMotionSolver : Moving mesh ...
displacementMotionSolver : Iteration 0
Moving mesh using displacement scaling : min:1  max:1
Checking faces in error :
    non-orthogonality > 65  degrees                        : 4522
    faces with face pyramid volume < 1e-13                 : 30
    faces with concavity > 80  degrees                     : 10
    faces with skewness > 4   (internal) or 20  (boundary) : 0
    faces with interpolation weights (0..1)  < 0.02        : 0
    faces with volume ratio of neighbour cells < 0.01      : 0
    faces with face twist < 0.02                           : 134
    faces on cells with determinant < 1e-05                : 0
displacementMotionSolver : Iteration 1
Moving mesh using displacement scaling : min:0.75  max:1
Checking faces in error :
    non-orthogonality > 65  degrees                        : 307
    faces with face pyramid volume < 1e-13                 : 0
    faces with concavity > 80  degrees                     : 18
    faces with skewness > 4   (internal) or 20  (boundary) : 0
    faces with interpolation weights (0..1)  < 0.02        : 0
    faces with volume ratio of neighbour cells < 0.01      : 0
    faces with face twist < 0.02                           : 0
    faces on cells with determinant < 1e-05                : 0
displacementMotionSolver : Iteration 2
Moving mesh using displacement scaling : min:0.5625  max:1
Checking faces in error :
    non-orthogonality > 65  degrees                        : 0
    faces with face pyramid volume < 1e-13                 : 0
    faces with concavity > 80  degrees                     : 10
    faces with skewness > 4   (internal) or 20  (boundary) : 0
    faces with interpolation weights (0..1)  < 0.02        : 0
    faces with volume ratio of neighbour cells < 0.01      : 0
    faces with face twist < 0.02                           : 0
    faces on cells with determinant < 1e-05                : 0
displacementMotionSolver : Iteration 3
Moving mesh using displacement scaling : min:0.421875  max:1
Checking faces in error :
    non-orthogonality > 65  degrees                        : 0
    faces with face pyramid volume < 1e-13                 : 0
    faces with concavity > 80  degrees                     : 0
    faces with skewness > 4   (internal) or 20  (boundary) : 0
    faces with interpolation weights (0..1)  < 0.02        : 0
    faces with volume ratio of neighbour cells < 0.01      : 0
    faces with face twist < 0.02                           : 0
    faces on cells with determinant < 1e-05                : 0
displacementMotionSolver : Successfully moved mesh
displacementMotionSolver : Finished moving mesh ...
truncateDisplacement : Unextruded 0 faces due to non-consecutive vertices being extruded.
truncateDisplacement : Unextruded 0 faces due to stringed edges with inconsistent extrusion.

Setting up information for layer truncation ...
Detected 0 baffles across faceZones of type internal


Checking mesh with layer ...
Checking faces in error :
    non-orthogonality > 65  degrees                        : 0
    faces with face pyramid volume < 1e-13                 : 10
    faces with concavity > 80  degrees                     : 35
    faces with skewness > 4   (internal) or 20  (boundary) : 0
    faces with interpolation weights (0..1)  < 0.02        : 0
    faces with volume ratio of neighbour cells < 0.01      : 0
    faces with face twist < 0.02                           : 32
    faces on cells with determinant < 1e-05                : 0
Detected 77 illegal faces (concave, zero area or negative cell pyramid volume)
Extruding 711197 out of 711242 faces (99.9937%). Removed extrusion at 37 faces.
Added 9957388 out of 9957388 cells (100%).


Layer addition iteration 1
--------------------------

Determining displacement for added points according to pointNormal ...
Detected 0 points with point normal pointing through faces.
Reset displacement at 0 points to average of surrounding points.

fieldSmoother : Smoothing field ...
    Iteration 0   residual 3.36738e-07
GAMG:  Solving for cellDisplacementx, Initial residual = 0.00187151, Final residual = 6.74399e-18, No Iterations 1
GAMG:  Solving for cellDisplacementy, Initial residual = 0.00029214, Final residual = 6.49247e-18, No Iterations 1
GAMG:  Solving for cellDisplacementz, Initial residual = 0.000602333, Final residual = 5.88046e-18, No Iterations 1
displacementMotionSolver : Moving mesh ...
displacementMotionSolver : Iteration 0
Moving mesh using displacement scaling : min:1  max:1
Checking faces in error :
    non-orthogonality > 65  degrees                        : 3726
    faces with face pyramid volume < 1e-13                 : 10
    faces with concavity > 80  degrees                     : 18
    faces with skewness > 4   (internal) or 20  (boundary) : 0
    faces with interpolation weights (0..1)  < 0.02        : 0
    faces with volume ratio of neighbour cells < 0.01      : 0
    faces with face twist < 0.02                           : 42
    faces on cells with determinant < 1e-05                : 0
displacementMotionSolver : Iteration 1
Moving mesh using displacement scaling : min:0.75  max:1
Checking faces in error :
    non-orthogonality > 65  degrees                        : 106
    faces with face pyramid volume < 1e-13                 : 0
    faces with concavity > 80  degrees                     : 12
    faces with skewness > 4   (internal) or 20  (boundary) : 0
    faces with interpolation weights (0..1)  < 0.02        : 0
    faces with volume ratio of neighbour cells < 0.01      : 0
    faces with face twist < 0.02                           : 0
    faces on cells with determinant < 1e-05                : 0
displacementMotionSolver : Iteration 2
Moving mesh using displacement scaling : min:0.5625  max:1
Checking faces in error :
    non-orthogonality > 65  degrees                        : 0
    faces with face pyramid volume < 1e-13                 : 0
    faces with concavity > 80  degrees                     : 9
    faces with skewness > 4   (internal) or 20  (boundary) : 0
    faces with interpolation weights (0..1)  < 0.02        : 0
    faces with volume ratio of neighbour cells < 0.01      : 0
    faces with face twist < 0.02                           : 0
    faces on cells with determinant < 1e-05                : 0
displacementMotionSolver : Iteration 3
Moving mesh using displacement scaling : min:0.421875  max:1
Checking faces in error :
    non-orthogonality > 65  degrees                        : 0
    faces with face pyramid volume < 1e-13                 : 0
    faces with concavity > 80  degrees                     : 4
    faces with skewness > 4   (internal) or 20  (boundary) : 0
    faces with interpolation weights (0..1)  < 0.02        : 0
    faces with volume ratio of neighbour cells < 0.01      : 0
    faces with face twist < 0.02                           : 0
    faces on cells with determinant < 1e-05                : 0
displacementMotionSolver : Iteration 4
Moving mesh using displacement scaling : min:0.316406  max:1
Checking faces in error :
    non-orthogonality > 65  degrees                        : 0
    faces with face pyramid volume < 1e-13                 : 0
    faces with concavity > 80  degrees                     : 0
    faces with skewness > 4   (internal) or 20  (boundary) : 0
    faces with interpolation weights (0..1)  < 0.02        : 0
    faces with volume ratio of neighbour cells < 0.01      : 0
    faces with face twist < 0.02                           : 0
    faces on cells with determinant < 1e-05                : 0
displacementMotionSolver : Successfully moved mesh
displacementMotionSolver : Finished moving mesh ...
truncateDisplacement : Unextruded 0 faces due to non-consecutive vertices being extruded.
truncateDisplacement : Unextruded 0 faces due to stringed edges with inconsistent extrusion.

Setting up information for layer truncation ...
Detected 0 baffles across faceZones of type internal


Checking mesh with layer ...
Checking faces in error :
    non-orthogonality > 65  degrees                        : 30
    faces with face pyramid volume < 1e-13                 : 12
    faces with concavity > 80  degrees                     : 0
    faces with skewness > 4   (internal) or 20  (boundary) : 0
    faces with interpolation weights (0..1)  < 0.02        : 0
    faces with volume ratio of neighbour cells < 0.01      : 0
    faces with face twist < 0.02                           : 24
    faces on cells with determinant < 1e-05                : 0
Detected 66 illegal faces (concave, zero area or negative cell pyramid volume)
Extruding 711193 out of 711242 faces (99.9931%). Removed extrusion at 0 faces.
Added 9901002 out of 9957388 cells (99.4337%).
Edge intersection testing:
    Number of edges             : 62386426
    Number of edges to retest   : 0
    Number of intersected edges : 10719677

patch    faces    layers   overall thickness
                           [m]       [%]
-----    -----    ------   ---       ---
gtsModel 711242   13.9     0.00564   99.4    


Doing final balancing
---------------------

Writing 9901002 added cells to cellSet addedCells
Writing 8617324 faces inside added layer to faceSet layerFaces

Writing fields with layer information:
    nSurfaceLayers    : actual number of layers
    thickness         : overall layer thickness
    thicknessFraction : overall layer thickness (fraction of desired thickness)

Layer mesh : cells:20492265  faces:62386426  points:21403979
Cells per refinement level:
    0	104568
    1	327394
    2	1166128
    3	3736868
    4	647638
    5	14509669
Writing mesh to time 3
Wrote mesh in = 79.68 s.
Layers added in = 79.64 s.
Checking final mesh ...
Checking faces in error :
    non-orthogonality > 65  degrees                        : 30
    faces with face pyramid volume < 1e-13                 : 12
    faces with concavity > 80  degrees                     : 0
    faces with skewness > 4   (internal) or 20  (boundary) : 0
    faces with interpolation weights (0..1)  < 0.02        : 0
    faces with volume ratio of neighbour cells < 0.01      : 0
    faces with face twist < 0.02                           : 24
    faces on cells with determinant < 1e-05                : 0
Finished meshing with 66 illegal faces (concave, zero area or negative cell pyramid volume)
Finished meshing in = 85.6 s.
End

Finalising parallel run
