/*---------------------------------------------------------------------------*\
| =========                 |                                                 |
| \\      /  F ield         | OpenFOAM: The Open Source CFD Toolbox           |
|  \\    /   O peration     | Version:  v1812                                 |
|   \\  /    A nd           | Web:      www.OpenFOAM.com                      |
|    \\/     M anipulation  |                                                 |
\*---------------------------------------------------------------------------*/
Build  : v1812 OPENFOAM=1812
Arch   : "LSB;label=32;scalar=64"
Exec   : snappyHexMesh -parallel -decomposeParDict system/decomposeParDict.60 -dict system/snappyHexMeshDict
Date   : Mar 22 2023
Time   : 13:57:42
Host   : compute-0-23.local
PID    : 158175
I/O    : uncollated
Case   : /share/storage/finzeo/Mallas/test/GTS_ofcom6
nProcs : 60
Hosts  :
(
    (compute-0-23.local 20)
    (compute-0-24.local 20)
    (compute-0-25.local 20)
)
Pstream initialized with:
    floatTransfer      : 0
    nProcsSimpleSum    : 0
    commsType          : nonBlocking
    polling iterations : 0
trapFpe: Floating point exception trapping enabled (FOAM_SIGFPE).
fileModificationChecking : Monitoring run-time modified files using timeStampMaster (fileModificationSkew 10)
allowSystemOperations : Allowing user-supplied system call operations

// * * * * * * * * * * * * * * * * * * * * * * * * * * * * * * * * * * * * * //
Create time

Create mesh for time = 0

Read mesh in = 0.3 s

Overall mesh bounding box  : (-7.41043 -1.6002 -0.1524) (4.47677 1.6002 2.1336)
Relative tolerance         : 1e-06
Absolute matching distance : 1.25209e-05

Reading refinement surfaces.
Read refinement surfaces in = 0.05 s

Reading refinement shells.
Refinement level according to distance to GTS-Storms-v8.stl
    level 5 for all cells within 0.015 metre.
Refinement level 1 for all cells inside refinementBox1
Refinement level 2 for all cells inside refinementBox2
Refinement level 3 for all cells inside refinementBox3
Read refinement shells in = 0 s

Setting refinement level of surface to be consistent with shells.
For geometry GTS-Storms-v8.stl detected 0 uncached triangles out of 17488
Checked shell refinement in = 0.19 s

Reading features.
Read features in = 0 s


Determining initial surface intersections
-----------------------------------------

Edge intersection testing:
    Number of edges             : 602172
    Number of edges to retest   : 602172
    Number of intersected edges : 23872
Calculated surface intersections in = 0.19 s

Initial mesh : cells:196560  faces:602172  points:209281
Cells per refinement level:
    0	196560

Adding patches for surface regions
----------------------------------

Patch Type                Region                        
----- ----                ------                        
gtsModel:

5     wall                gtsModel                      

inlet:

1     patch               inlet                         

outlet:

2     patch               outlet                        

left:

6     wall                left                          

right:

7     wall                right                         

top:

8     wall                top                           

floor:

9     wall                floor                         

Added patches in = 0.03 s

Edge intersection testing:
    Number of edges             : 602172
    Number of edges to retest   : 2520
    Number of intersected edges : 23872
Selecting decompositionMethod hierarchical [60]

Refinement phase
----------------

Found point (2.0001 0.0001 0.5002) in cell 2572 on processor 13

Surface refinement iteration 0
------------------------------

Marked for refinement due to surface intersection          : 2382 cells.
Determined cells to refine in = 0.02 s
Selected for refinement : 2382 cells (out of 196560)
Edge intersection testing:
    Number of edges             : 656364
    Number of edges to retest   : 68475
    Number of intersected edges : 28258
Refined mesh in = 0.22 s
After refinement surface refinement iteration 0 : cells:213234  faces:656364  points:230192
Cells per refinement level:
    0	194178
    1	19056
Balanced mesh in = 0.21 s
After balancing surface refinement iteration 0 : cells:213234  faces:656364  points:230192
Cells per refinement level:
    0	194178
    1	19056

Surface refinement iteration 1
------------------------------

Marked for refinement due to surface intersection          : 7130 cells.
Determined cells to refine in = 0.05 s
Selected for refinement : 7574 cells (out of 213234)
Edge intersection testing:
    Number of edges             : 827400
    Number of edges to retest   : 217633
    Number of intersected edges : 40742
Refined mesh in = 0.14 s
After refinement surface refinement iteration 1 : cells:266252  faces:827400  points:295274
Cells per refinement level:
    0	193732
    1	15496
    2	57024
Balanced mesh in = 0.32 s
After balancing surface refinement iteration 1 : cells:266252  faces:827400  points:295274
Cells per refinement level:
    0	193732
    1	15496
    2	57024

Surface refinement iteration 2
------------------------------

Marked for refinement due to surface intersection          : 21908 cells.
Determined cells to refine in = 0.15 s
Selected for refinement : 24110 cells (out of 266252)
Edge intersection testing:
    Number of edges             : 1369998
    Number of edges to retest   : 673956
    Number of intersected edges : 74434
Refined mesh in = 0.27 s
After refinement surface refinement iteration 2 : cells:435022  faces:1369998  points:500368
Cells per refinement level:
    0	193288
    1	16994
    2	51844
    3	172896
Balanced mesh in = 0.5 s
After balancing surface refinement iteration 2 : cells:435022  faces:1369998  points:500368
Cells per refinement level:
    0	193288
    1	16994
    2	51844
    3	172896

Surface refinement iteration 3
------------------------------

Marked for refinement due to surface intersection          : 86906 cells.
Determined cells to refine in = 0.07 s
Selected for refinement : 95172 cells (out of 435022)
Edge intersection testing:
    Number of edges             : 3503571
    Number of edges to retest   : 2660744
    Number of intersected edges : 211054
Refined mesh in = 0.77 s
After refinement surface refinement iteration 3 : cells:1101226  faces:3503571  points:1301652
Cells per refinement level:
    0	193192
    1	17302
    2	47294
    3	152350
    4	691088
Balanced mesh in = 1.61 s
After balancing surface refinement iteration 3 : cells:1101226  faces:3503571  points:1301652
Cells per refinement level:
    0	193192
    1	17302
    2	47294
    3	152350
    4	691088

Surface refinement iteration 4
------------------------------

Marked for refinement due to surface intersection          : 350424 cells.
Determined cells to refine in = 0.17 s
Selected for refinement : 360941 cells (out of 1101226)
Edge intersection testing:
    Number of edges             : 11630568
    Number of edges to retest   : 10389746
    Number of intersected edges : 755264
Refined mesh in = 1.56 s
After refinement surface refinement iteration 4 : cells:3627813  faces:11630568  points:4375782
Cells per refinement level:
    0	193104
    1	17792
    2	48434
    3	145423
    4	434548
    5	2788512
Balanced mesh in = 3.74 s
After balancing surface refinement iteration 4 : cells:3627813  faces:11630568  points:4375782
Cells per refinement level:
    0	193104
    1	17792
    2	48434
    3	145423
    4	434548
    5	2788512

Surface refinement iteration 5
------------------------------

Marked for refinement due to surface intersection          : 6672 cells.
Determined cells to refine in = 0.54 s
Selected for refinement : 6990 cells (out of 3627813)
Edge intersection testing:
    Number of edges             : 11781330
    Number of edges to retest   : 349396
    Number of intersected edges : 760558
Refined mesh in = 1.9 s
After refinement surface refinement iteration 5 : cells:3676743  faces:11781330  points:4428352
Cells per refinement level:
    0	193098
    1	17820
    2	48508
    3	145891
    4	429650
    5	2841776
Skipping balancing since max unbalance 0.0556308 is less than allowable 0.1

Surface refinement iteration 6
------------------------------

Marked for refinement due to surface intersection          : 46 cells.
Determined cells to refine in = 0.54 s
Selected for refinement : 48 cells (out of 3676743)
Edge intersection testing:
    Number of edges             : 11782356
    Number of edges to retest   : 3626
    Number of intersected edges : 760570
Refined mesh in = 1.84 s
After refinement surface refinement iteration 6 : cells:3677079  faces:11782356  points:4428706
Cells per refinement level:
    0	193098
    1	17820
    2	48508
    3	145889
    4	429620
    5	2842144
Skipping balancing since max unbalance 0.0564585 is less than allowable 0.1

Surface refinement iteration 7
------------------------------

Marked for refinement due to surface intersection          : 0 cells.
Determined cells to refine in = 0.54 s
Selected for refinement : 0 cells (out of 3677079)
Stopping refining since too few cells selected.


Removing mesh beyond surface intersections
------------------------------------------

Setting cellZones according to locationsInMesh:
Location : (2.0001 0.0001 0.5002)
    cellZone : none

For cellZone none found point (2.0001 0.0001 0.5002) in global region 1 out of 3 regions.
Keeping all cells containing inside points
Selected for keeping : 3677079 cells.
Edge intersection testing:
    Number of edges             : 11782356
    Number of edges to retest   : 0
    Number of intersected edges : 760570
Setting cellZones according to locationsInMesh:
Location : (2.0001 0.0001 0.5002)
    cellZone : none

For cellZone none found point (2.0001 0.0001 0.5002) in global region 1 out of 3 regions.
Keeping all cells containing inside points
Selected for keeping : 3384316 cells.
Edge intersection testing:
    Number of edges             : 10965853
    Number of edges to retest   : 483452
    Number of intersected edges : 760570

Shell refinement iteration 0
----------------------------

Marked for refinement due to distance to explicit features : 0 cells.
Marked for refinement due to refinement shells             : 463646 cells.
Determined cells to refine in = 3.45 s
Selected for internal refinement : 509260 cells (out of 3384316)
Edge intersection testing:
    Number of edges             : 21716257
    Number of edges to retest   : 16922020
    Number of intersected edges : 775545
Refined mesh in = 3.71 s
After refinement shell refinement iteration 0 : cells:6949136  faces:21716257  points:7815715
Cells per refinement level:
    0	127416
    1	530436
    2	91502
    3	193491
    4	671541
    5	5334750
Balanced mesh in = 5.7 s
After balancing shell refinement iteration 0 : cells:6949136  faces:21716257  points:7815715
Cells per refinement level:
    0	127416
    1	530436
    2	91502
    3	193491
    4	671541
    5	5334750

Shell refinement iteration 1
----------------------------

Marked for refinement due to distance to explicit features : 0 cells.
Marked for refinement due to refinement shells             : 424927 cells.
Determined cells to refine in = 0.67 s
Selected for internal refinement : 457562 cells (out of 6949136)
Edge intersection testing:
    Number of edges             : 31410883
    Number of edges to retest   : 14986236
    Number of intersected edges : 808014
Refined mesh in = 3.19 s
After refinement shell refinement iteration 1 : cells:10152070  faces:31410883  points:11104041
Cells per refinement level:
    0	125484
    1	349344
    2	1609499
    3	600928
    4	715777
    5	6751038
Balanced mesh in = 8.6 s
After balancing shell refinement iteration 1 : cells:10152070  faces:31410883  points:11104041
Cells per refinement level:
    0	125484
    1	349344
    2	1609499
    3	600928
    4	715777
    5	6751038

Shell refinement iteration 2
----------------------------

Marked for refinement due to distance to explicit features : 0 cells.
Marked for refinement due to refinement shells             : 411974 cells.
Determined cells to refine in = 0.77 s
Selected for internal refinement : 417588 cells (out of 10152070)
Edge intersection testing:
    Number of edges             : 40233124
    Number of edges to retest   : 10572203
    Number of intersected edges : 835086
Refined mesh in = 4.19 s
After refinement shell refinement iteration 2 : cells:13075186  faces:40233124  points:14079996
Cells per refinement level:
    0	125480
    1	344380
    2	1238285
    3	3889816
    4	719483
    5	6757742
Balanced mesh in = 9.1 s
After balancing shell refinement iteration 2 : cells:13075186  faces:40233124  points:14080001
Cells per refinement level:
    0	125480
    1	344380
    2	1238285
    3	3889816
    4	719483
    5	6757742

Shell refinement iteration 3
----------------------------

Marked for refinement due to distance to explicit features : 0 cells.
Marked for refinement due to refinement shells             : 0 cells.
Determined cells to refine in = 0.82 s
Selected for internal refinement : 62 cells (out of 13075186)
Edge intersection testing:
    Number of edges             : 40234525
    Number of edges to retest   : 5146
    Number of intersected edges : 835086
Refined mesh in = 2.68 s
After refinement shell refinement iteration 3 : cells:13075620  faces:40234525  points:14080538
Cells per refinement level:
    0	125480
    1	344368
    2	1238352
    3	3890027
    4	719651
    5	6757742
Skipping balancing since max unbalance 0.00178959 is less than allowable 0.1

Shell refinement iteration 4
----------------------------

Marked for refinement due to distance to explicit features : 0 cells.
Marked for refinement due to refinement shells             : 0 cells.
Determined cells to refine in = 0.79 s
Selected for internal refinement : 0 cells (out of 13075620)
Stopping refining since too few cells selected.


Dangling coarse cells refinement iteration 0
--------------------------------------------

Determined cells to refine in = 0.02 s
Selected for refinement : 0 cells (out of 13075620)
Stopping refining since too few cells selected.


Dangling coarse cells refinement iteration 0
--------------------------------------------

Determined cells to refine in = 0.03 s
Selected for refinement : 0 cells (out of 13075620)
Stopping refining since too few cells selected.


Refinement transition refinement iteration 0
--------------------------------------------

Determined cells to refine in = 0.03 s
Selected for refinement : 0 cells (out of 13075620)
Stopping refining since too few cells selected.


Splitting mesh at surface intersections
---------------------------------------

Introducing baffles for 835086 faces that are intersected by the surface.

Setting cellZones according to locationsInMesh:
Location : (2.0001 0.0001 0.5002)
    cellZone : none

For cellZone none found point (2.0001 0.0001 0.5002) in global region 1 out of 3 regions.
Edge intersection testing:
    Number of edges             : 41069611
    Number of edges to retest   : 6407421
    Number of intersected edges : 1670016
Created baffles in = 2.21 s


After introducing baffles : cells:13075620  faces:41069611  points:14238453
Cells per refinement level:
    0	125480
    1	344368
    2	1238352
    3	3890027
    4	719651
    5	6757742

Introducing baffles to block off problem cells
----------------------------------------------

markFacesOnProblemCells : marked 439896 additional internal faces to be converted into baffles.
Analyzed problem cells in = 1.42 s


Introducing baffles to delete problem cells.

Edge intersection testing:
    Number of edges             : 41509507
    Number of edges to retest   : 1376067
    Number of intersected edges : 1670016
Created baffles in = 1.75 s


After introducing baffles : cells:13075620  faces:41509507  points:14240982
Cells per refinement level:
    0	125480
    1	344368
    2	1238352
    3	3890027
    4	719651
    5	6757742
Setting cellZones according to locationsInMesh:
Location : (2.0001 0.0001 0.5002)
    cellZone : none

For cellZone none found point (2.0001 0.0001 0.5002) in global region 2 out of 215395 regions.
Edge intersection testing:
    Number of edges             : 41509507
    Number of edges to retest   : 6808951
    Number of intersected edges : 1670016

Remove unreachable sections of mesh
-----------------------------------

Keeping all cells containing points 1((2.0001 0.0001 0.5002))
Selected for keeping : 10591263 cells.
Edge intersection testing:
    Number of edges             : 32676565
    Number of edges to retest   : 0
    Number of intersected edges : 834284
Split mesh in = 3.92 s


After subsetting : cells:10591263  faces:32676565  points:11494894
Cells per refinement level:
    0	104568
    1	327394
    2	1166128
    3	3736868
    4	647638
    5	4608667

Introducing zones for interfaces
--------------------------------

Setting cellZones according to locationsInMesh:
Location : (2.0001 0.0001 0.5002)
    cellZone : none

For cellZone none found point (2.0001 0.0001 0.5002) in global region 0 out of 1 regions.
Setting faceZones according to neighbouring cellZones:

Edge intersection testing:
    Number of edges             : 32676565
    Number of edges to retest   : 0
    Number of intersected edges : 834284

Handling cells with snap problems
---------------------------------

Introducing baffles for 834284 faces that are intersected by the surface.

Setting cellZones according to locationsInMesh:
Location : (2.0001 0.0001 0.5002)
    cellZone : none

For cellZone none found point (2.0001 0.0001 0.5002) in global region 0 out of 1 regions.
Edge intersection testing:
    Number of edges             : 32676565
    Number of edges to retest   : 3290824
    Number of intersected edges : 834284
Created baffles in = 3.01 s


After introducing baffles : cells:10591263  faces:32676565  points:11494894
Cells per refinement level:
    0	104568
    1	327394
    2	1166128
    3	3736868
    4	647638
    5	4608667

Introducing baffles to block off problem cells
----------------------------------------------

markFacesOnProblemCells : marked 0 additional internal faces to be converted into baffles.
Analyzed problem cells in = 1.16 s


Introducing baffles to delete problem cells.

Created baffles in = 0.08 s


After introducing baffles : cells:10591263  faces:32676565  points:11494894
Cells per refinement level:
    0	104568
    1	327394
    2	1166128
    3	3736868
    4	647638
    5	4608667
Setting cellZones according to locationsInMesh:
Location : (2.0001 0.0001 0.5002)
    cellZone : none

For cellZone none found point (2.0001 0.0001 0.5002) in global region 0 out of 1 regions.
Edge intersection testing:
    Number of edges             : 32676565
    Number of edges to retest   : 3290824
    Number of intersected edges : 834284

Remove unreachable sections of mesh
-----------------------------------

Split mesh in = 1.86 s


After subsetting : cells:10591263  faces:32676565  points:11494894
Cells per refinement level:
    0	104568
    1	327394
    2	1166128
    3	3736868
    4	647638
    5	4608667

Merge free-standing baffles
---------------------------

freeStandingBaffles : detected 0 free-standing baffles out of 0

Detected free-standing baffles : 0
Merged free-standing baffles in = 0.67 s


dupNonManifoldPoints : Found : 0 non-manifold points (out of 12025241)
Detected unsplittable baffles : 0

Merge refined boundary faces
----------------------------

Merging 160 sets of faces.

Edge intersection testing:
    Number of edges             : 32676241
    Number of edges to retest   : 1525
    Number of intersected edges : 833960

Undo iteration 0
----------------
Checking faces in error :
    non-orthogonality > 65  degrees                        : 0
    faces with face pyramid volume < 1e-13                 : 0
    faces with face-decomposition tet quality < 1e-15      : 0
    faces with concavity > 80  degrees                     : 0
    faces with skewness > 4   (internal) or 20  (boundary) : 0
    faces with interpolation weights (0..1)  < 0.02        : 0
    faces with volume ratio of neighbour cells < 0.01      : 0
    faces with face twist < 0.02                           : 0
    faces on cells with determinant < 0.001                : 0

Merging all points on surface that
- are used by only two boundary faces and
- make an angle with a cosine of more than 0.707107.

Removing 242 straight edge points ...

Edge intersection testing:
    Number of edges             : 32676241
    Number of edges to retest   : 2247
    Number of intersected edges : 833960

Undo iteration 0
----------------
Checking faces in error :
    non-orthogonality > 65  degrees                        : 0
    faces with face pyramid volume < 1e-13                 : 0
    faces with face-decomposition tet quality < 1e-15      : 0
    faces with concavity > 80  degrees                     : 0
    faces with skewness > 4   (internal) or 20  (boundary) : 0
    faces with interpolation weights (0..1)  < 0.02        : 0
    faces with volume ratio of neighbour cells < 0.01      : 0
    faces with face twist < 0.02                           : 0
    faces on cells with determinant < 0.001                : 0

Doing final balancing
---------------------

Found 0 zoned faces to keep together.
Found 0 separated coupled faces to keep together.
Refined mesh : cells:10591263  faces:32676241  points:11494570
Cells per refinement level:
    0	104568
    1	327394
    2	1166128
    3	3736868
    4	647638
    5	4608667
Writing mesh to time 1
Wrote mesh in = 12.67 s.
Mesh refined in = 87.66 s.

Morphing phase
--------------

Duplicating 0 points on faceZones of type boundary
Snapping to features in 20 iterations ...
Constructing mesh displacer ...
Using mesh parameters 
{
    maxNonOrtho     65;
    maxBoundarySkewness 20;
    maxInternalSkewness 4;
    maxConcave      80;
    minVol          1e-13;
    minTetQuality   1e-15;
    minArea         -1;
    minTwist        0.02;
    minDeterminant  0.001;
    minFaceWeight   0.02;
    minVolRatio     0.01;
    minTriangleTwist -1;
    nSmoothScale    4;
    errorReduction  0.75;
    relaxed
    {
        maxNonOrtho     75;
    }
}


Checking initial mesh ...
Checking faces in error :
    non-orthogonality > 65  degrees                        : 0
    faces with face pyramid volume < 1e-13                 : 0
    faces with face-decomposition tet quality < 1e-15      : 0
    faces with concavity > 80  degrees                     : 0
    faces with skewness > 4   (internal) or 20  (boundary) : 0
    faces with interpolation weights (0..1)  < 0.02        : 0
    faces with volume ratio of neighbour cells < 0.01      : 0
    faces with face twist < 0.02                           : 0
    faces on cells with determinant < 0.001                : 0
Detected 0 illegal faces (concave, zero area or negative cell pyramid volume)
Checked initial mesh in = 2.15 s


Smoothing patch points ...
Smoothing iteration 0
Found 0 non-manifold point(s).

Scaling iteration 0
Moving mesh using displacement scaling : min:1  max:1
Checking faces in error :
    non-orthogonality > 65  degrees                        : 0
    faces with face pyramid volume < 1e-13                 : 0
    faces with face-decomposition tet quality < 1e-15      : 0
    faces with concavity > 80  degrees                     : 0
    faces with skewness > 4   (internal) or 20  (boundary) : 0
    faces with interpolation weights (0..1)  < 0.02        : 0
    faces with volume ratio of neighbour cells < 0.01      : 0
    faces with face twist < 0.02                           : 0
    faces on cells with determinant < 0.001                : 0
Successfully moved mesh

Smoothing iteration 1
Found 0 non-manifold point(s).

Scaling iteration 0
Moving mesh using displacement scaling : min:1  max:1
Checking faces in error :
    non-orthogonality > 65  degrees                        : 0
    faces with face pyramid volume < 1e-13                 : 0
    faces with face-decomposition tet quality < 1e-15      : 0
    faces with concavity > 80  degrees                     : 0
    faces with skewness > 4   (internal) or 20  (boundary) : 0
    faces with interpolation weights (0..1)  < 0.02        : 0
    faces with volume ratio of neighbour cells < 0.01      : 0
    faces with face twist < 0.02                           : 0
    faces on cells with determinant < 0.001                : 0
Successfully moved mesh

Smoothing iteration 2
Found 0 non-manifold point(s).

Scaling iteration 0
Moving mesh using displacement scaling : min:1  max:1
Checking faces in error :
    non-orthogonality > 65  degrees                        : 0
    faces with face pyramid volume < 1e-13                 : 0
    faces with face-decomposition tet quality < 1e-15      : 0
    faces with concavity > 80  degrees                     : 0
    faces with skewness > 4   (internal) or 20  (boundary) : 0
    faces with interpolation weights (0..1)  < 0.02        : 0
    faces with volume ratio of neighbour cells < 0.01      : 0
    faces with face twist < 0.02                           : 0
    faces on cells with determinant < 0.001                : 0
Successfully moved mesh

Patch points smoothed in = 4.26 s



Morph iteration 0
-----------------
Calculating patchDisplacement as distance to nearest surface point ...
    non-zone points : attract to nearest of all non-zone surfaces
    zone points     : attract to zone surface only

Wanted displacement : average:0.000872657 min:1.18932e-08 max:0.0497525
Calculated surface displacement in = 0.07 s


Detecting near surfaces ...
Overriding nearest with intersection of close gaps at 0 out of 847823 points.
Overriding displacement on features :
   implicit features    : false
   explicit features    : true
   multi-patch features : false

Detected 0 baffle edges out of 1681717 edges.
Baffle points     : 0 of which attracted to :
    feature point : 0
    feature edge  : 0
    rest          : 0

Initially selected 5887 mesh points out of 847823 for reverse attraction.
Selected 17755 mesh points out of 847823 for reverse attraction.
Stringing feature edges : changed 0 points
Attraction:
    linear   : max:(-0.000248755 0.0497519 0) avg:(7.71671e-05 1.6143e-09 -2.51828e-05)
    feature  : max:(0 0 0) avg:(0 0 0)
Feature analysis : total master points :834989 of which attracted to :
    feature point   : 0
    feature edge    : 0
    nearest surface : 0
    rest            : 834989

--> FOAM Warning : Displacement (-0.000295974 0.000171688 -2.79382e-05) at mesh point 0 coord (-7.29836 -1.48813 0.1524) points through the surrounding patch faces
Smoothing displacement ...
Iteration 0
Iteration 10
Iteration 20
Iteration 30
Iteration 40
Iteration 50
Iteration 60
Iteration 70
Iteration 80
Iteration 90
Iteration 100
Iteration 110
Iteration 120
Iteration 130
Iteration 140
Iteration 150
Iteration 160
Iteration 170
Iteration 180
Iteration 190
Iteration 200
Iteration 210
Iteration 220
Iteration 230
Iteration 240
Iteration 250
Iteration 260
Iteration 270
Iteration 280
Iteration 290
Displacement smoothed in = 18.27 s


Moving mesh ...

Iteration 0
Moving mesh using displacement scaling : min:1  max:1
Checking faces in error :
    non-orthogonality > 65  degrees                        : 0
    faces with face pyramid volume < 1e-13                 : 0
    faces with face-decomposition tet quality < 1e-15      : 0
    faces with concavity > 80  degrees                     : 0
    faces with skewness > 4   (internal) or 20  (boundary) : 0
    faces with interpolation weights (0..1)  < 0.02        : 0
    faces with volume ratio of neighbour cells < 0.01      : 0
    faces with face twist < 0.02                           : 0
    faces on cells with determinant < 0.001                : 0
Successfully moved mesh
Moved mesh in = 1.25 s



Morph iteration 1
-----------------
Calculating patchDisplacement as distance to nearest surface point ...
    non-zone points : attract to nearest of all non-zone surfaces
    zone points     : attract to zone surface only

Wanted displacement : average:0.000832134 min:6.21724e-09 max:0.0489174
Calculated surface displacement in = 0.08 s


Detecting near surfaces ...
Overriding nearest with intersection of close gaps at 0 out of 847823 points.
Overriding displacement on features :
   implicit features    : false
   explicit features    : true
   multi-patch features : false

Detected 0 baffle edges out of 1681717 edges.
Baffle points     : 0 of which attracted to :
    feature point : 0
    feature edge  : 0
    rest          : 0

Initially selected 5881 mesh points out of 847823 for reverse attraction.
Selected 17749 mesh points out of 847823 for reverse attraction.
Stringing feature edges : changed 0 points
Attraction:
    linear   : max:(-0.00024458 -0.0489168 8.67362e-18) avg:(7.32399e-05 1.51646e-09 -2.39123e-05)
    feature  : max:(0 0 0) avg:(0 0 0)
Feature analysis : total master points :834989 of which attracted to :
    feature point   : 0
    feature edge    : 0
    nearest surface : 0
    rest            : 834989

--> FOAM Warning : Displacement (-0.000564609 0.00028832 -4.71342e-05) at mesh point 0 coord (-7.29865 -1.48795 0.152372) points through the surrounding patch faces
Smoothing displacement ...
Iteration 0
Iteration 10
Iteration 20
Iteration 30
Iteration 40
Iteration 50
Iteration 60
Iteration 70
Iteration 80
Iteration 90
Iteration 100
Iteration 110
Iteration 120
Iteration 130
Iteration 140
Iteration 150
Iteration 160
Iteration 170
Iteration 180
Iteration 190
Iteration 200
Iteration 210
Iteration 220
Iteration 230
Iteration 240
Iteration 250
Iteration 260
Iteration 270
Iteration 280
Iteration 290
Displacement smoothed in = 17.59 s


Moving mesh ...

Iteration 0
Moving mesh using displacement scaling : min:1  max:1
Checking faces in error :
    non-orthogonality > 65  degrees                        : 0
    faces with face pyramid volume < 1e-13                 : 0
    faces with face-decomposition tet quality < 1e-15      : 0
    faces with concavity > 80  degrees                     : 0
    faces with skewness > 4   (internal) or 20  (boundary) : 0
    faces with interpolation weights (0..1)  < 0.02        : 0
    faces with volume ratio of neighbour cells < 0.01      : 0
    faces with face twist < 0.02                           : 0
    faces on cells with determinant < 0.001                : 0
Successfully moved mesh
Moved mesh in = 1.27 s



Morph iteration 2
-----------------
Calculating patchDisplacement as distance to nearest surface point ...
    non-zone points : attract to nearest of all non-zone surfaces
    zone points     : attract to zone surface only

Wanted displacement : average:0.000754822 min:1.63384e-08 max:0.0471554
Calculated surface displacement in = 0.07 s


Detecting near surfaces ...
Overriding nearest with intersection of close gaps at 0 out of 847823 points.
Overriding displacement on features :
   implicit features    : false
   explicit features    : true
   multi-patch features : false

Detected 0 baffle edges out of 1681717 edges.
Baffle points     : 0 of which attracted to :
    feature point : 0
    feature edge  : 0
    rest          : 0

Initially selected 5879 mesh points out of 847823 for reverse attraction.
Selected 17747 mesh points out of 847823 for reverse attraction.
Stringing feature edges : changed 0 points
Attraction:
    linear   : max:(-0.00023577 -0.0471548 -5.20417e-18) avg:(6.57907e-05 1.36146e-09 -2.1505e-05)
    feature  : max:(0 0 0) avg:(0 0 0)
Feature analysis : total master points :834989 of which attracted to :
    feature point   : 0
    feature edge    : 0
    nearest surface : 0
    rest            : 834989

--> FOAM Warning : Displacement (-0.000786083 0.000325201 -5.62074e-05) at mesh point 0 coord (-7.29922 -1.48767 0.152325) points through the surrounding patch faces
Smoothing displacement ...
Iteration 0
Iteration 10
Iteration 20
Iteration 30
Iteration 40
Iteration 50
Iteration 60
Iteration 70
Iteration 80
Iteration 90
Iteration 100
Iteration 110
Iteration 120
Iteration 130
Iteration 140
Iteration 150
Iteration 160
Iteration 170
Iteration 180
Iteration 190
Iteration 200
Iteration 210
Iteration 220
Iteration 230
Iteration 240
Iteration 250
Iteration 260
Iteration 270
Iteration 280
Iteration 290
Displacement smoothed in = 17.53 s


Moving mesh ...

Iteration 0
Moving mesh using displacement scaling : min:1  max:1
Checking faces in error :
    non-orthogonality > 65  degrees                        : 0
    faces with face pyramid volume < 1e-13                 : 0
    faces with face-decomposition tet quality < 1e-15      : 0
    faces with concavity > 80  degrees                     : 0
    faces with skewness > 4   (internal) or 20  (boundary) : 0
    faces with interpolation weights (0..1)  < 0.02        : 0
    faces with volume ratio of neighbour cells < 0.01      : 0
    faces with face twist < 0.02                           : 0
    faces on cells with determinant < 0.001                : 0
Successfully moved mesh
Moved mesh in = 1.25 s



Morph iteration 3
-----------------
Calculating patchDisplacement as distance to nearest surface point ...
    non-zone points : attract to nearest of all non-zone surfaces
    zone points     : attract to zone surface only

Wanted displacement : average:0.000649838 min:8.96634e-09 max:0.0444588
Calculated surface displacement in = 0.07 s


Detecting near surfaces ...
Overriding nearest with intersection of close gaps at 0 out of 847823 points.
Overriding displacement on features :
   implicit features    : false
   explicit features    : true
   multi-patch features : false

Detected 0 baffle edges out of 1681717 edges.
Baffle points     : 0 of which attracted to :
    feature point : 0
    feature edge  : 0
    rest          : 0

Initially selected 5875 mesh points out of 847823 for reverse attraction.
Selected 17739 mesh points out of 847823 for reverse attraction.
Stringing feature edges : changed 0 points
Attraction:
    linear   : max:(-0.000222287 -0.0444583 -1.30104e-17) avg:(5.57589e-05 1.19271e-09 -1.82682e-05)
    feature  : max:(0 0 0) avg:(0 0 0)
Feature analysis : total master points :834989 of which attracted to :
    feature point   : 0
    feature edge    : 0
    nearest surface : 0
    rest            : 834989

--> FOAM Warning : Displacement (-0.000876696 0.000362123 -1.75578e-05) at mesh point 187738 coord (-7.29988 -1.48715 0.228552) points through the surrounding patch faces
Smoothing displacement ...
Iteration 0
Iteration 10
Iteration 20
Iteration 30
Iteration 40
Iteration 50
Iteration 60
Iteration 70
Iteration 80
Iteration 90
Iteration 100
Iteration 110
Iteration 120
Iteration 130
Iteration 140
Iteration 150
Iteration 160
Iteration 170
Iteration 180
Iteration 190
Iteration 200
Iteration 210
Iteration 220
Iteration 230
Iteration 240
Iteration 250
Iteration 260
Iteration 270
Iteration 280
Iteration 290
Displacement smoothed in = 17.64 s


Moving mesh ...

Iteration 0
Moving mesh using displacement scaling : min:1  max:1
Checking faces in error :
    non-orthogonality > 65  degrees                        : 0
    faces with face pyramid volume < 1e-13                 : 0
    faces with face-decomposition tet quality < 1e-15      : 0
    faces with concavity > 80  degrees                     : 0
    faces with skewness > 4   (internal) or 20  (boundary) : 0
    faces with interpolation weights (0..1)  < 0.02        : 0
    faces with volume ratio of neighbour cells < 0.01      : 0
    faces with face twist < 0.02                           : 0
    faces on cells with determinant < 0.001                : 0
Successfully moved mesh
Moved mesh in = 1.24 s



Morph iteration 4
-----------------
Calculating patchDisplacement as distance to nearest surface point ...
    non-zone points : attract to nearest of all non-zone surfaces
    zone points     : attract to zone surface only

Wanted displacement : average:0.000529833 min:3.70375e-09 max:0.0409108
Calculated surface displacement in = 0.07 s


Detecting near surfaces ...
Overriding nearest with intersection of close gaps at 0 out of 847823 points.
Overriding displacement on features :
   implicit features    : false
   explicit features    : true
   multi-patch features : false

Detected 0 baffle edges out of 1681717 edges.
Baffle points     : 0 of which attracted to :
    feature point : 0
    feature edge  : 0
    rest          : 0

Initially selected 5873 mesh points out of 847823 for reverse attraction.
Selected 17721 mesh points out of 847823 for reverse attraction.
Stringing feature edges : changed 0 points
Attraction:
    linear   : max:(-0.000204548 -0.0409103 3.38271e-17) avg:(4.44246e-05 9.16191e-10 -1.46186e-05)
    feature  : max:(0 0 0) avg:(0 0 0)
Feature analysis : total master points :834989 of which attracted to :
    feature point   : 0
    feature edge    : 0
    nearest surface : 0
    rest            : 834989

--> FOAM Warning : Displacement (-0.000655123 0.000652815 -0.000202193) at mesh point 19704 coord (-7.25095 -1.50167 0.0081311) points through the surrounding patch faces
Smoothing displacement ...
Iteration 0
Iteration 10
Iteration 20
Iteration 30
Iteration 40
Iteration 50
Iteration 60
Iteration 70
Iteration 80
Iteration 90
Iteration 100
Iteration 110
Iteration 120
Iteration 130
Iteration 140
Iteration 150
Iteration 160
Iteration 170
Iteration 180
Iteration 190
Iteration 200
Iteration 210
Iteration 220
Iteration 230
Iteration 240
Iteration 250
Iteration 260
Iteration 270
Iteration 280
Iteration 290
Displacement smoothed in = 17.62 s


Moving mesh ...

Iteration 0
Moving mesh using displacement scaling : min:1  max:1
Checking faces in error :
    non-orthogonality > 65  degrees                        : 0
    faces with face pyramid volume < 1e-13                 : 0
    faces with face-decomposition tet quality < 1e-15      : 0
    faces with concavity > 80  degrees                     : 0
    faces with skewness > 4   (internal) or 20  (boundary) : 0
    faces with interpolation weights (0..1)  < 0.02        : 0
    faces with volume ratio of neighbour cells < 0.01      : 0
    faces with face twist < 0.02                           : 0
    faces on cells with determinant < 0.001                : 0
Successfully moved mesh
Moved mesh in = 1.26 s



Morph iteration 5
-----------------
Calculating patchDisplacement as distance to nearest surface point ...
    non-zone points : attract to nearest of all non-zone surfaces
    zone points     : attract to zone surface only

Wanted displacement : average:0.000408416 min:1.70798e-08 max:0.0366785
Calculated surface displacement in = 0.08 s


Detecting near surfaces ...
Overriding nearest with intersection of close gaps at 0 out of 847823 points.
Overriding displacement on features :
   implicit features    : false
   explicit features    : true
   multi-patch features : false

Detected 0 baffle edges out of 1681717 edges.
Baffle points     : 0 of which attracted to :
    feature point : 0
    feature edge  : 0
    rest          : 0

Initially selected 5871 mesh points out of 847823 for reverse attraction.
Selected 17715 mesh points out of 847823 for reverse attraction.
Stringing feature edges : changed 0 points
Attraction:
    linear   : max:(-0.000183387 -0.0366781 1.64799e-17) avg:(3.31432e-05 6.88764e-10 -1.09901e-05)
    feature  : max:(0 0 0) avg:(0 0 0)
Feature analysis : total master points :834989 of which attracted to :
    feature point   : 0
    feature edge    : 0
    nearest surface : 0
    rest            : 834989

--> FOAM Warning : Displacement (-0.000627878 0.000679523 -0.000143208) at mesh point 19704 coord (-7.25161 -1.50102 0.00792891) points through the surrounding patch faces
Smoothing displacement ...
Iteration 0
Iteration 10
Iteration 20
Iteration 30
Iteration 40
Iteration 50
Iteration 60
Iteration 70
Iteration 80
Iteration 90
Iteration 100
Iteration 110
Iteration 120
Iteration 130
Iteration 140
Iteration 150
Iteration 160
Iteration 170
Iteration 180
Iteration 190
Iteration 200
Iteration 210
Iteration 220
Iteration 230
Iteration 240
Iteration 250
Iteration 260
Iteration 270
Iteration 280
Iteration 290
Displacement smoothed in = 17.61 s


Moving mesh ...

Iteration 0
Moving mesh using displacement scaling : min:1  max:1
Checking faces in error :
    non-orthogonality > 65  degrees                        : 0
    faces with face pyramid volume < 1e-13                 : 0
    faces with face-decomposition tet quality < 1e-15      : 0
    faces with concavity > 80  degrees                     : 0
    faces with skewness > 4   (internal) or 20  (boundary) : 0
    faces with interpolation weights (0..1)  < 0.02        : 0
    faces with volume ratio of neighbour cells < 0.01      : 0
    faces with face twist < 0.02                           : 0
    faces on cells with determinant < 0.001                : 0
Successfully moved mesh
Moved mesh in = 1.27 s



Morph iteration 6
-----------------
Calculating patchDisplacement as distance to nearest surface point ...
    non-zone points : attract to nearest of all non-zone surfaces
    zone points     : attract to zone surface only

Wanted displacement : average:0.000297359 min:6.7954e-09 max:0.0319914
Calculated surface displacement in = 0.07 s


Detecting near surfaces ...
Overriding nearest with intersection of close gaps at 0 out of 847823 points.
Overriding displacement on features :
   implicit features    : false
   explicit features    : true
   multi-patch features : false

Detected 0 baffle edges out of 1681717 edges.
Baffle points     : 0 of which attracted to :
    feature point : 0
    feature edge  : 0
    rest          : 0

Initially selected 5869 mesh points out of 847823 for reverse attraction.
Selected 17707 mesh points out of 847823 for reverse attraction.
Stringing feature edges : changed 0 points
Attraction:
    linear   : max:(-0.000159952 -0.031991 1.04083e-17) avg:(2.30463e-05 4.14405e-10 -7.74313e-06)
    feature  : max:(0 0 0) avg:(0 0 0)
Feature analysis : total master points :834989 of which attracted to :
    feature point   : 0
    feature edge    : 0
    nearest surface : 0
    rest            : 834989

--> FOAM Warning : Displacement (-0.000563423 0.000679593 -6.92877e-05) at mesh point 19704 coord (-7.25224 -1.50034 0.0077857) points through the surrounding patch faces
Smoothing displacement ...
Iteration 0
Iteration 10
Iteration 20
Iteration 30
Iteration 40
Iteration 50
Iteration 60
Iteration 70
Iteration 80
Iteration 90
Iteration 100
Iteration 110
Iteration 120
Iteration 130
Iteration 140
Iteration 150
Iteration 160
Iteration 170
Iteration 180
Iteration 190
Iteration 200
Iteration 210
Iteration 220
Iteration 230
Iteration 240
Iteration 250
Iteration 260
Iteration 270
Iteration 280
Iteration 290
Displacement smoothed in = 17.6 s


Moving mesh ...

Iteration 0
Moving mesh using displacement scaling : min:1  max:1
Checking faces in error :
    non-orthogonality > 65  degrees                        : 0
    faces with face pyramid volume < 1e-13                 : 0
    faces with face-decomposition tet quality < 1e-15      : 0
    faces with concavity > 80  degrees                     : 0
    faces with skewness > 4   (internal) or 20  (boundary) : 0
    faces with interpolation weights (0..1)  < 0.02        : 0
    faces with volume ratio of neighbour cells < 0.01      : 0
    faces with face twist < 0.02                           : 0
    faces on cells with determinant < 0.001                : 0
Successfully moved mesh
Moved mesh in = 1.31 s



Morph iteration 7
-----------------
Calculating patchDisplacement as distance to nearest surface point ...
    non-zone points : attract to nearest of all non-zone surfaces
    zone points     : attract to zone surface only

Wanted displacement : average:0.000204734 min:2.25108e-09 max:0.0271088
Calculated surface displacement in = 0.08 s


Detecting near surfaces ...
Overriding nearest with intersection of close gaps at 0 out of 847823 points.
Overriding displacement on features :
   implicit features    : false
   explicit features    : true
   multi-patch features : false

Detected 0 baffle edges out of 1681717 edges.
Baffle points     : 0 of which attracted to :
    feature point : 0
    feature edge  : 0
    rest          : 0

Initially selected 5869 mesh points out of 847823 for reverse attraction.
Selected 17707 mesh points out of 847823 for reverse attraction.
Stringing feature edges : changed 0 points
Attraction:
    linear   : max:(-0.00013554 0.0271084 2.22045e-16) avg:(1.48605e-05 2.07759e-10 -5.10583e-06)
    feature  : max:(0 0 0) avg:(0 0 0)
Feature analysis : total master points :834989 of which attracted to :
    feature point   : 0
    feature edge    : 0
    nearest surface : 0
    rest            : 834989

--> FOAM Warning : Displacement (-0.000477283 0.000666948 7.24559e-06) at mesh point 19704 coord (-7.2528 -1.49966 0.00771642) points through the surrounding patch faces
Smoothing displacement ...
Iteration 0
Iteration 10
Iteration 20
Iteration 30
Iteration 40
Iteration 50
Iteration 60
Iteration 70
Iteration 80
Iteration 90
Iteration 100
Iteration 110
Iteration 120
Iteration 130
Iteration 140
Iteration 150
Iteration 160
Iteration 170
Iteration 180
Iteration 190
Iteration 200
Iteration 210
Iteration 220
Iteration 230
Iteration 240
Iteration 250
Iteration 260
Iteration 270
Iteration 280
Iteration 290
Displacement smoothed in = 17.6 s


Moving mesh ...

Iteration 0
Moving mesh using displacement scaling : min:1  max:1
Checking faces in error :
    non-orthogonality > 65  degrees                        : 0
    faces with face pyramid volume < 1e-13                 : 0
    faces with face-decomposition tet quality < 1e-15      : 0
    faces with concavity > 80  degrees                     : 0
    faces with skewness > 4   (internal) or 20  (boundary) : 0
    faces with interpolation weights (0..1)  < 0.02        : 0
    faces with volume ratio of neighbour cells < 0.01      : 0
    faces with face twist < 0.02                           : 0
    faces on cells with determinant < 0.001                : 0
Successfully moved mesh
Moved mesh in = 1.26 s



Morph iteration 8
-----------------
Calculating patchDisplacement as distance to nearest surface point ...
    non-zone points : attract to nearest of all non-zone surfaces
    zone points     : attract to zone surface only

Wanted displacement : average:0.000134767 min:6.23377e-09 max:0.0232937
Calculated surface displacement in = 0.07 s


Detecting near surfaces ...
Overriding nearest with intersection of close gaps at 0 out of 847823 points.
Overriding displacement on features :
   implicit features    : false
   explicit features    : true
   multi-patch features : false

Detected 0 baffle edges out of 1681717 edges.
Baffle points     : 0 of which attracted to :
    feature point : 0
    feature edge  : 0
    rest          : 0

Initially selected 5869 mesh points out of 847823 for reverse attraction.
Selected 17707 mesh points out of 847823 for reverse attraction.
Stringing feature edges : changed 0 points
Attraction:
    linear   : max:(-0.0232937 0 0) avg:(8.82666e-06 5.3384e-11 -3.15158e-06)
    feature  : max:(0 0 0) avg:(0 0 0)
Feature analysis : total master points :834989 of which attracted to :
    feature point   : 0
    feature edge    : 0
    nearest surface : 0
    rest            : 834989

--> FOAM Warning : Displacement (-0.00038475 0.000650796 7.50974e-05) at mesh point 19704 coord (-7.25328 -1.49899 0.00772366) points through the surrounding patch faces
Smoothing displacement ...
Iteration 0
Iteration 10
Iteration 20
Iteration 30
Iteration 40
Iteration 50
Iteration 60
Iteration 70
Iteration 80
Iteration 90
Iteration 100
Iteration 110
Iteration 120
Iteration 130
Iteration 140
Iteration 150
Iteration 160
Iteration 170
Iteration 180
Iteration 190
Iteration 200
Iteration 210
Iteration 220
Iteration 230
Iteration 240
Iteration 250
Iteration 260
Iteration 270
Iteration 280
Iteration 290
Displacement smoothed in = 17.6 s


Moving mesh ...

Iteration 0
Moving mesh using displacement scaling : min:1  max:1
Checking faces in error :
    non-orthogonality > 65  degrees                        : 0
    faces with face pyramid volume < 1e-13                 : 0
    faces with face-decomposition tet quality < 1e-15      : 0
    faces with concavity > 80  degrees                     : 0
    faces with skewness > 4   (internal) or 20  (boundary) : 0
    faces with interpolation weights (0..1)  < 0.02        : 0
    faces with volume ratio of neighbour cells < 0.01      : 0
    faces with face twist < 0.02                           : 0
    faces on cells with determinant < 0.001                : 0
Successfully moved mesh
Moved mesh in = 1.26 s



Morph iteration 9
-----------------
Calculating patchDisplacement as distance to nearest surface point ...
    non-zone points : attract to nearest of all non-zone surfaces
    zone points     : attract to zone surface only

Wanted displacement : average:8.52493e-05 min:3.02841e-10 max:0.0201442
Calculated surface displacement in = 0.07 s


Detecting near surfaces ...
Overriding nearest with intersection of close gaps at 0 out of 847823 points.
Overriding displacement on features :
   implicit features    : false
   explicit features    : true
   multi-patch features : false

Detected 0 baffle edges out of 1681717 edges.
Baffle points     : 0 of which attracted to :
    feature point : 0
    feature edge  : 0
    rest          : 0

Initially selected 5873 mesh points out of 847823 for reverse attraction.
Selected 17713 mesh points out of 847823 for reverse attraction.
Stringing feature edges : changed 0 points
Attraction:
    linear   : max:(-0.0201442 0 0) avg:(4.79412e-06 1.0468e-10 -1.82751e-06)
    feature  : max:(0 0 0) avg:(0 0 0)
Feature analysis : total master points :834989 of which attracted to :
    feature point   : 0
    feature edge    : 0
    nearest surface : 0
    rest            : 834989

--> FOAM Warning : Displacement (-0.000298137 0.0006317 0.000125799) at mesh point 19704 coord (-7.25366 -1.49834 0.00779876) points through the surrounding patch faces
Smoothing displacement ...
Iteration 0
Iteration 10
Iteration 20
Iteration 30
Iteration 40
Iteration 50
Iteration 60
Iteration 70
Iteration 80
Iteration 90
Iteration 100
Iteration 110
Iteration 120
Iteration 130
Iteration 140
Iteration 150
Iteration 160
Iteration 170
Iteration 180
Iteration 190
Iteration 200
Iteration 210
Iteration 220
Iteration 230
Iteration 240
Iteration 250
Iteration 260
Iteration 270
Iteration 280
Iteration 290
Displacement smoothed in = 18.12 s


Moving mesh ...

Iteration 0
Moving mesh using displacement scaling : min:1  max:1
Checking faces in error :
    non-orthogonality > 65  degrees                        : 0
    faces with face pyramid volume < 1e-13                 : 0
    faces with face-decomposition tet quality < 1e-15      : 0
    faces with concavity > 80  degrees                     : 0
    faces with skewness > 4   (internal) or 20  (boundary) : 0
    faces with interpolation weights (0..1)  < 0.02        : 0
    faces with volume ratio of neighbour cells < 0.01      : 0
    faces with face twist < 0.02                           : 0
    faces on cells with determinant < 0.001                : 0
Successfully moved mesh
Moved mesh in = 1.26 s



Morph iteration 10
-----------------
Calculating patchDisplacement as distance to nearest surface point ...
    non-zone points : attract to nearest of all non-zone surfaces
    zone points     : attract to zone surface only

Wanted displacement : average:5.29116e-05 min:3.33746e-10 max:0.0169833
Calculated surface displacement in = 0.08 s


Detecting near surfaces ...
Overriding nearest with intersection of close gaps at 0 out of 847823 points.
Overriding displacement on features :
   implicit features    : false
   explicit features    : true
   multi-patch features : false

Detected 0 baffle edges out of 1681717 edges.
Baffle points     : 0 of which attracted to :
    feature point : 0
    feature edge  : 0
    rest          : 0

Initially selected 5871 mesh points out of 847823 for reverse attraction.
Selected 17713 mesh points out of 847823 for reverse attraction.
Stringing feature edges : changed 0 points
Attraction:
    linear   : max:(-0.0169833 0 0) avg:(2.35799e-06 -5.66358e-11 -1.00504e-06)
    feature  : max:(0 0 0) avg:(0 0 0)
Feature analysis : total master points :834989 of which attracted to :
    feature point   : 0
    feature edge    : 0
    nearest surface : 0
    rest            : 834989

--> FOAM Warning : Displacement (0.000110544 -7.72724e-05 0.000143871) at mesh point 20063 coord (-7.33607 -1.29589 0.0765233) points through the surrounding patch faces
Smoothing displacement ...
Iteration 0
Iteration 10
Iteration 20
Iteration 30
Iteration 40
Iteration 50
Iteration 60
Iteration 70
Iteration 80
Iteration 90
Iteration 100
Iteration 110
Iteration 120
Iteration 130
Iteration 140
Iteration 150
Iteration 160
Iteration 170
Iteration 180
Iteration 190
Iteration 200
Iteration 210
Iteration 220
Iteration 230
Iteration 240
Iteration 250
Iteration 260
Iteration 270
Iteration 280
Iteration 290
Displacement smoothed in = 17.65 s


Moving mesh ...

Iteration 0
Moving mesh using displacement scaling : min:1  max:1
Checking faces in error :
    non-orthogonality > 65  degrees                        : 0
    faces with face pyramid volume < 1e-13                 : 0
    faces with face-decomposition tet quality < 1e-15      : 0
    faces with concavity > 80  degrees                     : 0
    faces with skewness > 4   (internal) or 20  (boundary) : 0
    faces with interpolation weights (0..1)  < 0.02        : 0
    faces with volume ratio of neighbour cells < 0.01      : 0
    faces with face twist < 0.02                           : 0
    faces on cells with determinant < 0.001                : 0
Successfully moved mesh
Moved mesh in = 1.27 s



Morph iteration 11
-----------------
Calculating patchDisplacement as distance to nearest surface point ...
    non-zone points : attract to nearest of all non-zone surfaces
    zone points     : attract to zone surface only

Wanted displacement : average:3.25598e-05 min:1.29181e-09 max:0.0138985
Calculated surface displacement in = 0.08 s


Detecting near surfaces ...
Overriding nearest with intersection of close gaps at 0 out of 847823 points.
Overriding displacement on features :
   implicit features    : false
   explicit features    : true
   multi-patch features : false

Detected 0 baffle edges out of 1681717 edges.
Baffle points     : 0 of which attracted to :
    feature point : 0
    feature edge  : 0
    rest          : 0

Initially selected 5871 mesh points out of 847823 for reverse attraction.
Selected 17713 mesh points out of 847823 for reverse attraction.
Stringing feature edges : changed 0 points
Attraction:
    linear   : max:(-0.0138985 0 0) avg:(1.03535e-06 -6.11035e-11 -5.33792e-07)
    feature  : max:(0 0 0) avg:(0 0 0)
Feature analysis : total master points :834989 of which attracted to :
    feature point   : 0
    feature edge    : 0
    nearest surface : 0
    rest            : 834989

--> FOAM Warning : Displacement (0.000154673 -0.000101874 0.00014663) at mesh point 20033 coord (-7.33548 -1.37156 0.0766803) points through the surrounding patch faces
Smoothing displacement ...
Iteration 0
Iteration 10
Iteration 20
Iteration 30
Iteration 40
Iteration 50
Iteration 60
Iteration 70
Iteration 80
Iteration 90
Iteration 100
Iteration 110
Iteration 120
Iteration 130
Iteration 140
Iteration 150
Iteration 160
Iteration 170
Iteration 180
Iteration 190
Iteration 200
Iteration 210
Iteration 220
Iteration 230
Iteration 240
Iteration 250
Iteration 260
Iteration 270
Iteration 280
Iteration 290
Displacement smoothed in = 17.59 s


Moving mesh ...

Iteration 0
Moving mesh using displacement scaling : min:1  max:1
Checking faces in error :
    non-orthogonality > 65  degrees                        : 0
    faces with face pyramid volume < 1e-13                 : 0
    faces with face-decomposition tet quality < 1e-15      : 0
    faces with concavity > 80  degrees                     : 0
    faces with skewness > 4   (internal) or 20  (boundary) : 0
    faces with interpolation weights (0..1)  < 0.02        : 0
    faces with volume ratio of neighbour cells < 0.01      : 0
    faces with face twist < 0.02                           : 0
    faces on cells with determinant < 0.001                : 0
Successfully moved mesh
Moved mesh in = 1.25 s



Morph iteration 12
-----------------
Calculating patchDisplacement as distance to nearest surface point ...
    non-zone points : attract to nearest of all non-zone surfaces
    zone points     : attract to zone surface only

Wanted displacement : average:1.99098e-05 min:2.87508e-10 max:0.010982
Calculated surface displacement in = 0.07 s


Detecting near surfaces ...
Overriding nearest with intersection of close gaps at 0 out of 847823 points.
Overriding displacement on features :
   implicit features    : false
   explicit features    : true
   multi-patch features : false

Detected 0 baffle edges out of 1681717 edges.
Baffle points     : 0 of which attracted to :
    feature point : 0
    feature edge  : 0
    rest          : 0

Initially selected 5871 mesh points out of 847823 for reverse attraction.
Selected 17707 mesh points out of 847823 for reverse attraction.
Stringing feature edges : changed 0 points
Attraction:
    linear   : max:(-0.010982 0 0) avg:(3.95154e-07 -4.41312e-11 -2.81007e-07)
    feature  : max:(0 0 0) avg:(0 0 0)
Feature analysis : total master points :834989 of which attracted to :
    feature point   : 0
    feature edge    : 0
    nearest surface : 0
    rest            : 834989

--> FOAM Warning : Displacement (-5.67011e-06 -7.90291e-05 0.000206053) at mesh point 19763 coord (-7.33498 -1.37205 0.00612332) points through the surrounding patch faces
Smoothing displacement ...
Iteration 0
Iteration 10
Iteration 20
Iteration 30
Iteration 40
Iteration 50
Iteration 60
Iteration 70
Iteration 80
Iteration 90
Iteration 100
Iteration 110
Iteration 120
Iteration 130
Iteration 140
Iteration 150
Iteration 160
Iteration 170
Iteration 180
Iteration 190
Iteration 200
Iteration 210
Iteration 220
Iteration 230
Iteration 240
Iteration 250
Iteration 260
Iteration 270
Iteration 280
Iteration 290
Displacement smoothed in = 17.65 s


Moving mesh ...

Iteration 0
Moving mesh using displacement scaling : min:1  max:1
Checking faces in error :
    non-orthogonality > 65  degrees                        : 0
    faces with face pyramid volume < 1e-13                 : 0
    faces with face-decomposition tet quality < 1e-15      : 0
    faces with concavity > 80  degrees                     : 0
    faces with skewness > 4   (internal) or 20  (boundary) : 0
    faces with interpolation weights (0..1)  < 0.02        : 0
    faces with volume ratio of neighbour cells < 0.01      : 0
    faces with face twist < 0.02                           : 0
    faces on cells with determinant < 0.001                : 0
Successfully moved mesh
Moved mesh in = 1.53 s



Morph iteration 13
-----------------
Calculating patchDisplacement as distance to nearest surface point ...
    non-zone points : attract to nearest of all non-zone surfaces
    zone points     : attract to zone surface only

Wanted displacement : average:1.20848e-05 min:3.55954e-12 max:0.00832763
Calculated surface displacement in = 0.08 s


Detecting near surfaces ...
Overriding nearest with intersection of close gaps at 0 out of 847823 points.
Overriding displacement on features :
   implicit features    : false
   explicit features    : true
   multi-patch features : false

Detected 0 baffle edges out of 1681717 edges.
Baffle points     : 0 of which attracted to :
    feature point : 0
    feature edge  : 0
    rest          : 0

Initially selected 5871 mesh points out of 847823 for reverse attraction.
Selected 17707 mesh points out of 847823 for reverse attraction.
Stringing feature edges : changed 0 points
Attraction:
    linear   : max:(-0.00832763 0 0) avg:(1.22213e-07 -2.87675e-11 -1.50367e-07)
    feature  : max:(0 0 0) avg:(0 0 0)
Feature analysis : total master points :834989 of which attracted to :
    feature point   : 0
    feature edge    : 0
    nearest surface : 0
    rest            : 834989

--> FOAM Warning : Displacement (0.000141333 -5.01019e-05 0.000184703) at mesh point 19763 coord (-7.33499 -1.37212 0.00632938) points through the surrounding patch faces
Smoothing displacement ...
Iteration 0
Iteration 10
Iteration 20
Iteration 30
Iteration 40
Iteration 50
Iteration 60
Iteration 70
Iteration 80
Iteration 90
Iteration 100
Iteration 110
Iteration 120
Iteration 130
Iteration 140
Iteration 150
Iteration 160
Iteration 170
Iteration 180
Iteration 190
Iteration 200
Iteration 210
Iteration 220
Iteration 230
Iteration 240
Iteration 250
Iteration 260
Iteration 270
Iteration 280
Iteration 290
Displacement smoothed in = 17.61 s


Moving mesh ...

Iteration 0
Moving mesh using displacement scaling : min:1  max:1
Checking faces in error :
    non-orthogonality > 65  degrees                        : 0
    faces with face pyramid volume < 1e-13                 : 0
    faces with face-decomposition tet quality < 1e-15      : 0
    faces with concavity > 80  degrees                     : 0
    faces with skewness > 4   (internal) or 20  (boundary) : 0
    faces with interpolation weights (0..1)  < 0.02        : 0
    faces with volume ratio of neighbour cells < 0.01      : 0
    faces with face twist < 0.02                           : 0
    faces on cells with determinant < 0.001                : 0
Successfully moved mesh
Moved mesh in = 1.26 s



Morph iteration 14
-----------------
Calculating patchDisplacement as distance to nearest surface point ...
    non-zone points : attract to nearest of all non-zone surfaces
    zone points     : attract to zone surface only

Wanted displacement : average:7.09432e-06 min:8.14188e-11 max:0.00601943
Calculated surface displacement in = 0.07 s


Detecting near surfaces ...
Overriding nearest with intersection of close gaps at 0 out of 847823 points.
Overriding displacement on features :
   implicit features    : false
   explicit features    : true
   multi-patch features : false

Detected 0 baffle edges out of 1681717 edges.
Baffle points     : 0 of which attracted to :
    feature point : 0
    feature edge  : 0
    rest          : 0

Initially selected 5871 mesh points out of 847823 for reverse attraction.
Selected 17707 mesh points out of 847823 for reverse attraction.
Stringing feature edges : changed 0 points
Attraction:
    linear   : max:(-0.00601943 0 0) avg:(2.21216e-08 -1.55904e-11 -8.25571e-08)
    feature  : max:(0 0 0) avg:(0 0 0)
Feature analysis : total master points :834989 of which attracted to :
    feature point   : 0
    feature edge    : 0
    nearest surface : 0
    rest            : 834989

--> FOAM Warning : Displacement (0.000188983 -2.75903e-05 0.00014815) at mesh point 19763 coord (-7.33485 -1.37217 0.00651408) points through the surrounding patch faces
Smoothing displacement ...
Iteration 0
Iteration 10
Iteration 20
Iteration 30
Iteration 40
Iteration 50
Iteration 60
Iteration 70
Iteration 80
Iteration 90
Iteration 100
Iteration 110
Iteration 120
Iteration 130
Iteration 140
Iteration 150
Iteration 160
Iteration 170
Iteration 180
Iteration 190
Iteration 200
Iteration 210
Iteration 220
Iteration 230
Iteration 240
Iteration 250
Iteration 260
Iteration 270
Iteration 280
Iteration 290
Displacement smoothed in = 17.63 s


Moving mesh ...

Iteration 0
Moving mesh using displacement scaling : min:1  max:1
Checking faces in error :
    non-orthogonality > 65  degrees                        : 0
    faces with face pyramid volume < 1e-13                 : 0
    faces with face-decomposition tet quality < 1e-15      : 0
    faces with concavity > 80  degrees                     : 0
    faces with skewness > 4   (internal) or 20  (boundary) : 0
    faces with interpolation weights (0..1)  < 0.02        : 0
    faces with volume ratio of neighbour cells < 0.01      : 0
    faces with face twist < 0.02                           : 0
    faces on cells with determinant < 0.001                : 0
Successfully moved mesh
Moved mesh in = 1.28 s



Morph iteration 15
-----------------
Calculating patchDisplacement as distance to nearest surface point ...
    non-zone points : attract to nearest of all non-zone surfaces
    zone points     : attract to zone surface only

Wanted displacement : average:3.93494e-06 min:8.38839e-12 max:0.00411763
Calculated surface displacement in = 0.07 s


Detecting near surfaces ...
Overriding nearest with intersection of close gaps at 0 out of 847823 points.
Overriding displacement on features :
   implicit features    : false
   explicit features    : true
   multi-patch features : false

Detected 0 baffle edges out of 1681717 edges.
Baffle points     : 0 of which attracted to :
    feature point : 0
    feature edge  : 0
    rest          : 0

Initially selected 5871 mesh points out of 847823 for reverse attraction.
Selected 17707 mesh points out of 847823 for reverse attraction.
Stringing feature edges : changed 0 points
Attraction:
    linear   : max:(-0.00411763 0 0) avg:(-7.22856e-09 -6.68457e-12 -4.58535e-08)
    feature  : max:(0 0 0) avg:(0 0 0)
Feature analysis : total master points :834989 of which attracted to :
    feature point   : 0
    feature edge    : 0
    nearest surface : 0
    rest            : 834989

--> FOAM Warning : Displacement (2.81841e-05 4.2559e-06 0.000100532) at mesh point 19733 coord (-7.33442 -1.44269 0.00685979) points through the surrounding patch faces
Smoothing displacement ...
Iteration 0
Iteration 10
Iteration 20
Iteration 30
Iteration 40
Iteration 50
Iteration 60
Iteration 70
Iteration 80
Iteration 90
Iteration 100
Iteration 110
Iteration 120
Iteration 130
Iteration 140
Iteration 150
Iteration 160
Iteration 170
Iteration 180
Iteration 190
Iteration 200
Iteration 210
Iteration 220
Iteration 230
Iteration 240
Iteration 250
Iteration 260
Iteration 270
Iteration 280
Iteration 290
Displacement smoothed in = 17.59 s


Moving mesh ...

Iteration 0
Moving mesh using displacement scaling : min:1  max:1
Checking faces in error :
    non-orthogonality > 65  degrees                        : 0
    faces with face pyramid volume < 1e-13                 : 0
    faces with face-decomposition tet quality < 1e-15      : 0
    faces with concavity > 80  degrees                     : 0
    faces with skewness > 4   (internal) or 20  (boundary) : 0
    faces with interpolation weights (0..1)  < 0.02        : 0
    faces with volume ratio of neighbour cells < 0.01      : 0
    faces with face twist < 0.02                           : 0
    faces on cells with determinant < 0.001                : 0
Successfully moved mesh
Moved mesh in = 1.38 s



Morph iteration 16
-----------------
Calculating patchDisplacement as distance to nearest surface point ...
    non-zone points : attract to nearest of all non-zone surfaces
    zone points     : attract to zone surface only

Wanted displacement : average:2.0263e-06 min:4.25546e-12 max:0.00264516
Calculated surface displacement in = 0.07 s


Detecting near surfaces ...
Overriding nearest with intersection of close gaps at 0 out of 847823 points.
Overriding displacement on features :
   implicit features    : false
   explicit features    : true
   multi-patch features : false

Detected 0 baffle edges out of 1681717 edges.
Baffle points     : 0 of which attracted to :
    feature point : 0
    feature edge  : 0
    rest          : 0

Initially selected 5871 mesh points out of 847823 for reverse attraction.
Selected 17707 mesh points out of 847823 for reverse attraction.
Stringing feature edges : changed 0 points
Attraction:
    linear   : max:(-0.00264516 0 0) avg:(-1.17155e-08 -2.25018e-12 -2.50467e-08)
    feature  : max:(0 0 0) avg:(0 0 0)
Feature analysis : total master points :834989 of which attracted to :
    feature point   : 0
    feature edge    : 0
    nearest surface : 0
    rest            : 834989

--> FOAM Warning : Displacement (5.63881e-05 1.74393e-05 6.85272e-05) at mesh point 19733 coord (-7.33439 -1.44268 0.00696032) points through the surrounding patch faces
Smoothing displacement ...
Iteration 0
Iteration 10
Iteration 20
Iteration 30
Iteration 40
Iteration 50
Iteration 60
Iteration 70
Iteration 80
Iteration 90
Iteration 100
Iteration 110
Iteration 120
Iteration 130
Iteration 140
Iteration 150
Iteration 160
Iteration 170
Iteration 180
Iteration 190
Iteration 200
Iteration 210
Iteration 220
Iteration 230
Iteration 240
Iteration 250
Iteration 260
Iteration 270
Iteration 280
Iteration 290
Displacement smoothed in = 17.59 s


Moving mesh ...

Iteration 0
Moving mesh using displacement scaling : min:1  max:1
Checking faces in error :
    non-orthogonality > 65  degrees                        : 0
    faces with face pyramid volume < 1e-13                 : 0
    faces with face-decomposition tet quality < 1e-15      : 0
    faces with concavity > 80  degrees                     : 0
    faces with skewness > 4   (internal) or 20  (boundary) : 0
    faces with interpolation weights (0..1)  < 0.02        : 0
    faces with volume ratio of neighbour cells < 0.01      : 0
    faces with face twist < 0.02                           : 0
    faces on cells with determinant < 0.001                : 0
Successfully moved mesh
Moved mesh in = 1.44 s



Morph iteration 17
-----------------
Calculating patchDisplacement as distance to nearest surface point ...
    non-zone points : attract to nearest of all non-zone surfaces
    zone points     : attract to zone surface only

Wanted displacement : average:9.52437e-07 min:4.21801e-13 max:0.00158251
Calculated surface displacement in = 0.07 s


Detecting near surfaces ...
Overriding nearest with intersection of close gaps at 0 out of 847823 points.
Overriding displacement on features :
   implicit features    : false
   explicit features    : true
   multi-patch features : false

Detected 0 baffle edges out of 1681717 edges.
Baffle points     : 0 of which attracted to :
    feature point : 0
    feature edge  : 0
    rest          : 0

Initially selected 5871 mesh points out of 847823 for reverse attraction.
Selected 17707 mesh points out of 847823 for reverse attraction.
Stringing feature edges : changed 0 points
Attraction:
    linear   : max:(-0.00158251 0 0) avg:(-9.13857e-09 -5.36049e-13 -1.30781e-08)
    feature  : max:(0 0 0) avg:(0 0 0)
Feature analysis : total master points :834989 of which attracted to :
    feature point   : 0
    feature edge    : 0
    nearest surface : 0
    rest            : 834989

--> FOAM Warning : Displacement (4.91706e-05 1.76617e-05 4.22001e-05) at mesh point 19733 coord (-7.33434 -1.44267 0.00702885) points through the surrounding patch faces
Smoothing displacement ...
Iteration 0
Iteration 10
Iteration 20
Iteration 30
Iteration 40
Iteration 50
Iteration 60
Iteration 70
Iteration 80
Iteration 90
Iteration 100
Iteration 110
Iteration 120
Iteration 130
Iteration 140
Iteration 150
Iteration 160
Iteration 170
Iteration 180
Iteration 190
Iteration 200
Iteration 210
Iteration 220
Iteration 230
Iteration 240
Iteration 250
Iteration 260
Iteration 270
Iteration 280
Iteration 290
Displacement smoothed in = 17.53 s


Moving mesh ...

Iteration 0
Moving mesh using displacement scaling : min:1  max:1
Checking faces in error :
    non-orthogonality > 65  degrees                        : 0
    faces with face pyramid volume < 1e-13                 : 0
    faces with face-decomposition tet quality < 1e-15      : 0
    faces with concavity > 80  degrees                     : 0
    faces with skewness > 4   (internal) or 20  (boundary) : 0
    faces with interpolation weights (0..1)  < 0.02        : 0
    faces with volume ratio of neighbour cells < 0.01      : 0
    faces with face twist < 0.02                           : 0
    faces on cells with determinant < 0.001                : 0
Successfully moved mesh
Moved mesh in = 1.29 s



Morph iteration 18
-----------------
Calculating patchDisplacement as distance to nearest surface point ...
    non-zone points : attract to nearest of all non-zone surfaces
    zone points     : attract to zone surface only

Wanted displacement : average:4.02545e-07 min:9.77e-15 max:0.000873475
Calculated surface displacement in = 0.07 s


Detecting near surfaces ...
Overriding nearest with intersection of close gaps at 0 out of 847823 points.
Overriding displacement on features :
   implicit features    : false
   explicit features    : true
   multi-patch features : false

Detected 0 baffle edges out of 1681717 edges.
Baffle points     : 0 of which attracted to :
    feature point : 0
    feature edge  : 0
    rest          : 0

Initially selected 5871 mesh points out of 847823 for reverse attraction.
Selected 17707 mesh points out of 847823 for reverse attraction.
Stringing feature edges : changed 0 points
Attraction:
    linear   : max:(-0.000873475 0 0) avg:(-5.57603e-09 -5.09523e-14 -6.37974e-09)
    feature  : max:(0 0 0) avg:(0 0 0)
Feature analysis : total master points :834989 of which attracted to :
    feature point   : 0
    feature edge    : 0
    nearest surface : 0
    rest            : 834989

--> FOAM Warning : Displacement (3.108e-05 1.26466e-05 2.34702e-05) at mesh point 19733 coord (-7.33429 -1.44265 0.00707105) points through the surrounding patch faces
Smoothing displacement ...
Iteration 0
Iteration 10
Iteration 20
Iteration 30
Iteration 40
Iteration 50
Iteration 60
Iteration 70
Iteration 80
Iteration 90
Iteration 100
Iteration 110
Iteration 120
Iteration 130
Iteration 140
Iteration 150
Iteration 160
Iteration 170
Iteration 180
Iteration 190
Iteration 200
Iteration 210
Iteration 220
Iteration 230
Iteration 240
Iteration 250
Iteration 260
Iteration 270
Iteration 280
Iteration 290
Displacement smoothed in = 17.58 s


Moving mesh ...

Iteration 0
Moving mesh using displacement scaling : min:1  max:1
Checking faces in error :
    non-orthogonality > 65  degrees                        : 0
    faces with face pyramid volume < 1e-13                 : 0
    faces with face-decomposition tet quality < 1e-15      : 0
    faces with concavity > 80  degrees                     : 0
    faces with skewness > 4   (internal) or 20  (boundary) : 0
    faces with interpolation weights (0..1)  < 0.02        : 0
    faces with volume ratio of neighbour cells < 0.01      : 0
    faces with face twist < 0.02                           : 0
    faces on cells with determinant < 0.001                : 0
Successfully moved mesh
Moved mesh in = 1.27 s



Morph iteration 19
-----------------
Calculating patchDisplacement as distance to nearest surface point ...
    non-zone points : attract to nearest of all non-zone surfaces
    zone points     : attract to zone surface only

Wanted displacement : average:1.49972e-07 min:1.46827e-14 max:0.000456475
Calculated surface displacement in = 0.07 s


Detecting near surfaces ...
Overriding nearest with intersection of close gaps at 1 out of 847823 points.
Overriding displacement on features :
   implicit features    : false
   explicit features    : true
   multi-patch features : false

Detected 0 baffle edges out of 1681717 edges.
Baffle points     : 0 of which attracted to :
    feature point : 0
    feature edge  : 0
    rest          : 0

Initially selected 5871 mesh points out of 847823 for reverse attraction.
Selected 17707 mesh points out of 847823 for reverse attraction.
Stringing feature edges : changed 0 points
Attraction:
    linear   : max:(-2.2823e-06 -0.000456469 0) avg:(-2.89018e-09 5.29912e-11 -2.804e-09)
    feature  : max:(0 0 0) avg:(0 0 0)
Feature analysis : total master points :834989 of which attracted to :
    feature point   : 0
    feature edge    : 0
    nearest surface : 0
    rest            : 834989

--> FOAM Warning : Displacement (2.51445e-05 0 1.38778e-17) at mesh point 19733 coord (-7.33426 -1.44264 0.00709452) points through the surrounding patch faces
Smoothing displacement ...
Iteration 0
Iteration 10
Iteration 20
Iteration 30
Iteration 40
Iteration 50
Iteration 60
Iteration 70
Iteration 80
Iteration 90
Iteration 100
Iteration 110
Iteration 120
Iteration 130
Iteration 140
Iteration 150
Iteration 160
Iteration 170
Iteration 180
Iteration 190
Iteration 200
Iteration 210
Iteration 220
Iteration 230
Iteration 240
Iteration 250
Iteration 260
Iteration 270
Iteration 280
Iteration 290
Displacement smoothed in = 17.02 s


Moving mesh ...

Iteration 0
Moving mesh using displacement scaling : min:1  max:1
Checking faces in error :
    non-orthogonality > 65  degrees                        : 0
    faces with face pyramid volume < 1e-13                 : 0
    faces with face-decomposition tet quality < 1e-15      : 0
    faces with concavity > 80  degrees                     : 0
    faces with skewness > 4   (internal) or 20  (boundary) : 0
    faces with interpolation weights (0..1)  < 0.02        : 0
    faces with volume ratio of neighbour cells < 0.01      : 0
    faces with face twist < 0.02                           : 0
    faces on cells with determinant < 0.001                : 0
Successfully moved mesh
Moved mesh in = 1.26 s


Repatching faces according to nearest surface ...
Repatched 10 faces in = 0.7 s


Edge intersection testing:
    Number of edges             : 32676241
    Number of edges to retest   : 9080871
    Number of intersected edges : 833902
Merging 15578 sets of faces.

Edge intersection testing:
    Number of edges             : 32659441
    Number of edges to retest   : 62627
    Number of intersected edges : 817102

Undo iteration 0
----------------
Checking faces in error :
    non-orthogonality > 65  degrees                        : 0
    faces with face pyramid volume < 1e-13                 : 0
    faces with face-decomposition tet quality < 1e-15      : 0
    faces with concavity > 80  degrees                     : 0
    faces with skewness > 4   (internal) or 20  (boundary) : 0
    faces with interpolation weights (0..1)  < 0.02        : 0
    faces with volume ratio of neighbour cells < 0.01      : 0
    faces with face twist < 0.02                           : 0
    faces on cells with determinant < 0.001                : 0

Merging all points on surface that
- are used by only two boundary faces and
- make an angle with a cosine of more than 0.866025.

Removing 14297 straight edge points ...

Edge intersection testing:
    Number of edges             : 32659441
    Number of edges to retest   : 60511
    Number of intersected edges : 817102

Undo iteration 0
----------------
Checking faces in error :
    non-orthogonality > 65  degrees                        : 0
    faces with face pyramid volume < 1e-13                 : 0
    faces with face-decomposition tet quality < 1e-15      : 0
    faces with concavity > 80  degrees                     : 0
    faces with skewness > 4   (internal) or 20  (boundary) : 0
    faces with interpolation weights (0..1)  < 0.02        : 0
    faces with volume ratio of neighbour cells < 0.01      : 0
    faces with face twist < 0.02                           : 0
    faces on cells with determinant < 0.001                : 0
Snapped mesh : cells:10591263  faces:32659441  points:11479155
Cells per refinement level:
    0	104568
    1	327394
    2	1166128
    3	3736868
    4	647638
    5	4608667
Writing mesh to time 2
Wrote mesh in = 13.34 s.
Mesh snapped in = 400.39 s.
Checking final mesh ...
Checking faces in error :
    non-orthogonality > 65  degrees                        : 0
    faces with face pyramid volume < 1e-13                 : 0
    faces with face-decomposition tet quality < 1e-15      : 0
    faces with concavity > 80  degrees                     : 0
    faces with skewness > 4   (internal) or 20  (boundary) : 0
    faces with interpolation weights (0..1)  < 0.02        : 0
    faces with volume ratio of neighbour cells < 0.01      : 0
    faces with face twist < 0.02                           : 0
    faces on cells with determinant < 0.001                : 0
Finished meshing without any errors
Finished meshing in = 490.48 s.
End

Finalising parallel run
