/*---------------------------------------------------------------------------*\
  =========                 |
  \\      /  F ield         | OpenFOAM: The Open Source CFD Toolbox
   \\    /   O peration     | Website:  https://openfoam.org
    \\  /    A nd           | Version:  7
     \\/     M anipulation  |
\*---------------------------------------------------------------------------*/
Build  : 7
Exec   : reconstructParMesh -mergeTol 1e-6 -constant
Date   : Oct 06 2022
Time   : 00:23:04
Host   : "compute-0-17.local"
PID    : 34767
I/O    : uncollated
Case   : /share/storage/finzeo/Mallas/GTSTunay/gts_mesh_lowresolution
nProcs : 1
sigFpe : Enabling floating point exception trapping (FOAM_SIGFPE).
fileModificationChecking : Monitoring run-time modified files using timeStampMaster (fileModificationSkew 10)
allowSystemOperations : Allowing user-supplied system call operations

// * * * * * * * * * * * * * * * * * * * * * * * * * * * * * * * * * * * * * //
Create time

This is an experimental tool which tries to merge individual processor
meshes back into one master mesh. Use it if the original master mesh has
been deleted or if the processor meshes have been modified (topology change).
This tool will write the resulting mesh to a new time step and construct
xxxxProcAddressing files in the processor meshes so reconstructPar can be
used to regenerate the fields on the master mesh.

Not well tested & use at your own risk!

Merge tolerance : 1e-06
Write tolerance : 1e-06
Doing geometric matching on correct procBoundaries only.
This assumes a correct decomposition.
Found 20 processor directories

Reading database "gts_mesh_lowresolution/processor0"
Reading database "gts_mesh_lowresolution/processor1"
Reading database "gts_mesh_lowresolution/processor2"
Reading database "gts_mesh_lowresolution/processor3"
Reading database "gts_mesh_lowresolution/processor4"
Reading database "gts_mesh_lowresolution/processor5"
Reading database "gts_mesh_lowresolution/processor6"
Reading database "gts_mesh_lowresolution/processor7"
Reading database "gts_mesh_lowresolution/processor8"
Reading database "gts_mesh_lowresolution/processor9"
Reading database "gts_mesh_lowresolution/processor10"
Reading database "gts_mesh_lowresolution/processor11"
Reading database "gts_mesh_lowresolution/processor12"
Reading database "gts_mesh_lowresolution/processor13"
Reading database "gts_mesh_lowresolution/processor14"
Reading database "gts_mesh_lowresolution/processor15"
Reading database "gts_mesh_lowresolution/processor16"
Reading database "gts_mesh_lowresolution/processor17"
Reading database "gts_mesh_lowresolution/processor18"
Reading database "gts_mesh_lowresolution/processor19"
Time = constant

Reading points from "gts_mesh_lowresolution/processor0" for time = constant

Reading points from "gts_mesh_lowresolution/processor1" for time = constant

Reading points from "gts_mesh_lowresolution/processor2" for time = constant

Reading points from "gts_mesh_lowresolution/processor3" for time = constant

Reading points from "gts_mesh_lowresolution/processor4" for time = constant

Reading points from "gts_mesh_lowresolution/processor5" for time = constant

Reading points from "gts_mesh_lowresolution/processor6" for time = constant

Reading points from "gts_mesh_lowresolution/processor7" for time = constant

Reading points from "gts_mesh_lowresolution/processor8" for time = constant

Reading points from "gts_mesh_lowresolution/processor9" for time = constant

Reading points from "gts_mesh_lowresolution/processor10" for time = constant

Reading points from "gts_mesh_lowresolution/processor11" for time = constant

Reading points from "gts_mesh_lowresolution/processor12" for time = constant

Reading points from "gts_mesh_lowresolution/processor13" for time = constant

Reading points from "gts_mesh_lowresolution/processor14" for time = constant

Reading points from "gts_mesh_lowresolution/processor15" for time = constant

Reading points from "gts_mesh_lowresolution/processor16" for time = constant

Reading points from "gts_mesh_lowresolution/processor17" for time = constant

Reading points from "gts_mesh_lowresolution/processor18" for time = constant

Reading points from "gts_mesh_lowresolution/processor19" for time = constant

Overall mesh bounding box  : (-37.8132 -18.0133 -0.504) (117.013 18.0133 32.4)
Relative tolerance         : 1e-06
Absolute matching distance : 0.000162332

Merging mesh 0 with 1
Merging mesh 2 with 3
Merging mesh 4 with 5
Merging mesh 6 with 7
Merging mesh 8 with 9
Merging mesh 10 with 11
Merging mesh 12 with 13
Merging mesh 14 with 15
Merging mesh 16 with 17
Merging mesh 18 with 19
Merging mesh 0 with 2
Merging mesh 4 with 6
Merging mesh 8 with 10
Merging mesh 12 with 14
Merging mesh 16 with 18
Merging mesh 0 with 4
Merging mesh 8 with 12
Merging mesh 0 with 8
Merging mesh 0 with 16
Reading mesh to add from "gts_mesh_lowresolution/processor0" for time = constant


Reading mesh to add from "gts_mesh_lowresolution/processor1" for time = constant


Reading mesh to add from "gts_mesh_lowresolution/processor2" for time = constant


Reading mesh to add from "gts_mesh_lowresolution/processor3" for time = constant


Reading mesh to add from "gts_mesh_lowresolution/processor4" for time = constant


Reading mesh to add from "gts_mesh_lowresolution/processor5" for time = constant


Reading mesh to add from "gts_mesh_lowresolution/processor6" for time = constant


Reading mesh to add from "gts_mesh_lowresolution/processor7" for time = constant


Reading mesh to add from "gts_mesh_lowresolution/processor8" for time = constant


Reading mesh to add from "gts_mesh_lowresolution/processor9" for time = constant


Reading mesh to add from "gts_mesh_lowresolution/processor10" for time = constant


Reading mesh to add from "gts_mesh_lowresolution/processor11" for time = constant


Reading mesh to add from "gts_mesh_lowresolution/processor12" for time = constant


Reading mesh to add from "gts_mesh_lowresolution/processor13" for time = constant


Reading mesh to add from "gts_mesh_lowresolution/processor14" for time = constant


Reading mesh to add from "gts_mesh_lowresolution/processor15" for time = constant


Reading mesh to add from "gts_mesh_lowresolution/processor16" for time = constant


Reading mesh to add from "gts_mesh_lowresolution/processor17" for time = constant


Reading mesh to add from "gts_mesh_lowresolution/processor18" for time = constant


Reading mesh to add from "gts_mesh_lowresolution/processor19" for time = constant


mergeSharedPoints : detected 0 points that are to be merged.

Writing merged mesh to "/share/storage/finzeo/Mallas/GTSTunay/gts_mesh_lowresolution/constant"

Reconstructing the addressing from the processor meshes to the newly reconstructed mesh

Reading processor 0 mesh from "gts_mesh_lowresolution/processor0"
Writing pointProcAddressing to "gts_mesh_lowresolution/processor0/constant/polyMesh"
Writing faceProcAddressing to "gts_mesh_lowresolution/processor0/constant/polyMesh"
Writing cellProcAddressing to "gts_mesh_lowresolution/processor0/constant/polyMesh"
Writing boundaryProcAddressing to "gts_mesh_lowresolution/processor0/constant/polyMesh"

Reading processor 1 mesh from "gts_mesh_lowresolution/processor1"
Writing pointProcAddressing to "gts_mesh_lowresolution/processor1/constant/polyMesh"
Writing faceProcAddressing to "gts_mesh_lowresolution/processor1/constant/polyMesh"
Writing cellProcAddressing to "gts_mesh_lowresolution/processor1/constant/polyMesh"
Writing boundaryProcAddressing to "gts_mesh_lowresolution/processor1/constant/polyMesh"

Reading processor 2 mesh from "gts_mesh_lowresolution/processor2"
Writing pointProcAddressing to "gts_mesh_lowresolution/processor2/constant/polyMesh"
Writing faceProcAddressing to "gts_mesh_lowresolution/processor2/constant/polyMesh"
Writing cellProcAddressing to "gts_mesh_lowresolution/processor2/constant/polyMesh"
Writing boundaryProcAddressing to "gts_mesh_lowresolution/processor2/constant/polyMesh"

Reading processor 3 mesh from "gts_mesh_lowresolution/processor3"
Writing pointProcAddressing to "gts_mesh_lowresolution/processor3/constant/polyMesh"
Writing faceProcAddressing to "gts_mesh_lowresolution/processor3/constant/polyMesh"
Writing cellProcAddressing to "gts_mesh_lowresolution/processor3/constant/polyMesh"
Writing boundaryProcAddressing to "gts_mesh_lowresolution/processor3/constant/polyMesh"

Reading processor 4 mesh from "gts_mesh_lowresolution/processor4"
Writing pointProcAddressing to "gts_mesh_lowresolution/processor4/constant/polyMesh"
Writing faceProcAddressing to "gts_mesh_lowresolution/processor4/constant/polyMesh"
Writing cellProcAddressing to "gts_mesh_lowresolution/processor4/constant/polyMesh"
Writing boundaryProcAddressing to "gts_mesh_lowresolution/processor4/constant/polyMesh"

Reading processor 5 mesh from "gts_mesh_lowresolution/processor5"
Writing pointProcAddressing to "gts_mesh_lowresolution/processor5/constant/polyMesh"
Writing faceProcAddressing to "gts_mesh_lowresolution/processor5/constant/polyMesh"
Writing cellProcAddressing to "gts_mesh_lowresolution/processor5/constant/polyMesh"
Writing boundaryProcAddressing to "gts_mesh_lowresolution/processor5/constant/polyMesh"

Reading processor 6 mesh from "gts_mesh_lowresolution/processor6"
Writing pointProcAddressing to "gts_mesh_lowresolution/processor6/constant/polyMesh"
Writing faceProcAddressing to "gts_mesh_lowresolution/processor6/constant/polyMesh"
Writing cellProcAddressing to "gts_mesh_lowresolution/processor6/constant/polyMesh"
Writing boundaryProcAddressing to "gts_mesh_lowresolution/processor6/constant/polyMesh"

Reading processor 7 mesh from "gts_mesh_lowresolution/processor7"
Writing pointProcAddressing to "gts_mesh_lowresolution/processor7/constant/polyMesh"
Writing faceProcAddressing to "gts_mesh_lowresolution/processor7/constant/polyMesh"
Writing cellProcAddressing to "gts_mesh_lowresolution/processor7/constant/polyMesh"
Writing boundaryProcAddressing to "gts_mesh_lowresolution/processor7/constant/polyMesh"

Reading processor 8 mesh from "gts_mesh_lowresolution/processor8"
Writing pointProcAddressing to "gts_mesh_lowresolution/processor8/constant/polyMesh"
Writing faceProcAddressing to "gts_mesh_lowresolution/processor8/constant/polyMesh"
Writing cellProcAddressing to "gts_mesh_lowresolution/processor8/constant/polyMesh"
Writing boundaryProcAddressing to "gts_mesh_lowresolution/processor8/constant/polyMesh"

Reading processor 9 mesh from "gts_mesh_lowresolution/processor9"
Writing pointProcAddressing to "gts_mesh_lowresolution/processor9/constant/polyMesh"
Writing faceProcAddressing to "gts_mesh_lowresolution/processor9/constant/polyMesh"
Writing cellProcAddressing to "gts_mesh_lowresolution/processor9/constant/polyMesh"
Writing boundaryProcAddressing to "gts_mesh_lowresolution/processor9/constant/polyMesh"

Reading processor 10 mesh from "gts_mesh_lowresolution/processor10"
Writing pointProcAddressing to "gts_mesh_lowresolution/processor10/constant/polyMesh"
Writing faceProcAddressing to "gts_mesh_lowresolution/processor10/constant/polyMesh"
Writing cellProcAddressing to "gts_mesh_lowresolution/processor10/constant/polyMesh"
Writing boundaryProcAddressing to "gts_mesh_lowresolution/processor10/constant/polyMesh"

Reading processor 11 mesh from "gts_mesh_lowresolution/processor11"
Writing pointProcAddressing to "gts_mesh_lowresolution/processor11/constant/polyMesh"
Writing faceProcAddressing to "gts_mesh_lowresolution/processor11/constant/polyMesh"
Writing cellProcAddressing to "gts_mesh_lowresolution/processor11/constant/polyMesh"
Writing boundaryProcAddressing to "gts_mesh_lowresolution/processor11/constant/polyMesh"

Reading processor 12 mesh from "gts_mesh_lowresolution/processor12"
Writing pointProcAddressing to "gts_mesh_lowresolution/processor12/constant/polyMesh"
Writing faceProcAddressing to "gts_mesh_lowresolution/processor12/constant/polyMesh"
Writing cellProcAddressing to "gts_mesh_lowresolution/processor12/constant/polyMesh"
Writing boundaryProcAddressing to "gts_mesh_lowresolution/processor12/constant/polyMesh"

Reading processor 13 mesh from "gts_mesh_lowresolution/processor13"
Writing pointProcAddressing to "gts_mesh_lowresolution/processor13/constant/polyMesh"
Writing faceProcAddressing to "gts_mesh_lowresolution/processor13/constant/polyMesh"
Writing cellProcAddressing to "gts_mesh_lowresolution/processor13/constant/polyMesh"
Writing boundaryProcAddressing to "gts_mesh_lowresolution/processor13/constant/polyMesh"

Reading processor 14 mesh from "gts_mesh_lowresolution/processor14"
Writing pointProcAddressing to "gts_mesh_lowresolution/processor14/constant/polyMesh"
Writing faceProcAddressing to "gts_mesh_lowresolution/processor14/constant/polyMesh"
Writing cellProcAddressing to "gts_mesh_lowresolution/processor14/constant/polyMesh"
Writing boundaryProcAddressing to "gts_mesh_lowresolution/processor14/constant/polyMesh"

Reading processor 15 mesh from "gts_mesh_lowresolution/processor15"
Writing pointProcAddressing to "gts_mesh_lowresolution/processor15/constant/polyMesh"
Writing faceProcAddressing to "gts_mesh_lowresolution/processor15/constant/polyMesh"
Writing cellProcAddressing to "gts_mesh_lowresolution/processor15/constant/polyMesh"
Writing boundaryProcAddressing to "gts_mesh_lowresolution/processor15/constant/polyMesh"

Reading processor 16 mesh from "gts_mesh_lowresolution/processor16"
Writing pointProcAddressing to "gts_mesh_lowresolution/processor16/constant/polyMesh"
Writing faceProcAddressing to "gts_mesh_lowresolution/processor16/constant/polyMesh"
Writing cellProcAddressing to "gts_mesh_lowresolution/processor16/constant/polyMesh"
Writing boundaryProcAddressing to "gts_mesh_lowresolution/processor16/constant/polyMesh"

Reading processor 17 mesh from "gts_mesh_lowresolution/processor17"
Writing pointProcAddressing to "gts_mesh_lowresolution/processor17/constant/polyMesh"
Writing faceProcAddressing to "gts_mesh_lowresolution/processor17/constant/polyMesh"
Writing cellProcAddressing to "gts_mesh_lowresolution/processor17/constant/polyMesh"
Writing boundaryProcAddressing to "gts_mesh_lowresolution/processor17/constant/polyMesh"

Reading processor 18 mesh from "gts_mesh_lowresolution/processor18"
Writing pointProcAddressing to "gts_mesh_lowresolution/processor18/constant/polyMesh"
Writing faceProcAddressing to "gts_mesh_lowresolution/processor18/constant/polyMesh"
Writing cellProcAddressing to "gts_mesh_lowresolution/processor18/constant/polyMesh"
Writing boundaryProcAddressing to "gts_mesh_lowresolution/processor18/constant/polyMesh"

Reading processor 19 mesh from "gts_mesh_lowresolution/processor19"
Writing pointProcAddressing to "gts_mesh_lowresolution/processor19/constant/polyMesh"
Writing faceProcAddressing to "gts_mesh_lowresolution/processor19/constant/polyMesh"
Writing cellProcAddressing to "gts_mesh_lowresolution/processor19/constant/polyMesh"
Writing boundaryProcAddressing to "gts_mesh_lowresolution/processor19/constant/polyMesh"

End.

