/*---------------------------------------------------------------------------*\
  =========                 |
  \\      /  F ield         | OpenFOAM: The Open Source CFD Toolbox
   \\    /   O peration     | Website:  https://openfoam.org
    \\  /    A nd           | Version:  7
     \\/     M anipulation  |
\*---------------------------------------------------------------------------*/
Build  : 7
Exec   : snappyHexMesh -parallel -overwrite
Date   : Aug 26 2022
Time   : 15:55:21
Host   : "compute-0-25.local"
PID    : 88195
I/O    : uncollated
Case   : /share/storage/finzeo/Mallas/GTSTunay/gts_mesh_lowresolution
nProcs : 40
Slaves : 
39
(
"compute-0-25.local.88196"
"compute-0-25.local.88197"
"compute-0-25.local.88198"
"compute-0-25.local.88199"
"compute-0-25.local.88200"
"compute-0-25.local.88201"
"compute-0-25.local.88202"
"compute-0-25.local.88203"
"compute-0-25.local.88204"
"compute-0-25.local.88205"
"compute-0-25.local.88206"
"compute-0-25.local.88207"
"compute-0-25.local.88208"
"compute-0-25.local.88209"
"compute-0-25.local.88210"
"compute-0-25.local.88211"
"compute-0-25.local.88212"
"compute-0-25.local.88213"
"compute-0-25.local.88214"
"compute-0-26.local.85557"
"compute-0-26.local.85558"
"compute-0-26.local.85559"
"compute-0-26.local.85560"
"compute-0-26.local.85561"
"compute-0-26.local.85562"
"compute-0-26.local.85563"
"compute-0-26.local.85564"
"compute-0-26.local.85565"
"compute-0-26.local.85566"
"compute-0-26.local.85567"
"compute-0-26.local.85568"
"compute-0-26.local.85569"
"compute-0-26.local.85570"
"compute-0-26.local.85571"
"compute-0-26.local.85572"
"compute-0-26.local.85573"
"compute-0-26.local.85574"
"compute-0-26.local.85575"
"compute-0-26.local.85576"
)

Pstream initialized with:
    floatTransfer      : 0
    nProcsSimpleSum    : 0
    commsType          : nonBlocking
    polling iterations : 0
sigFpe : Enabling floating point exception trapping (FOAM_SIGFPE).
fileModificationChecking : Monitoring run-time modified files using timeStampMaster (fileModificationSkew 10)
allowSystemOperations : Allowing user-supplied system call operations

// * * * * * * * * * * * * * * * * * * * * * * * * * * * * * * * * * * * * * //
Create time

Create mesh for time = 0

Read mesh in = 0.11 s

Overall mesh bounding box  : (-37.8 -18 -0.50401) (117 18 32.4)
Relative tolerance         : 1e-06
Absolute matching distance : 0.000162301

Reading refinement surfaces.
Read refinement surfaces in = 6 s

Reading refinement shells.
Refinement level according to distance to gtsModel
    level 4 for all cells within 0.26 metre.
Refinement level 1 for all cells inside refinementBox
Read refinement shells in = 0 s

Setting refinement level of surface to be consistent with shells.
Checked shell refinement in = 0 s

Reading features.
Read edgeMesh vehicleSurfaceMesh.eMesh
    points      : 4026
    edges       : 4026
    boundingBox : (-12.185 -1.3 0) (0 1.3 3.6)

Refinement level according to distance to "vehicleSurfaceMesh.eMesh" (4026 points, 4026 edges).
    level 3 for all cells within 0 metre.
Read edgeMesh topMesh.eMesh
    points      : 424
    edges       : 424
    boundingBox : (-37.8 -18 32.4) (117 18 32.4)

Refinement level according to distance to "topMesh.eMesh" (424 points, 424 edges).
    level 0 for all cells within 0 metre.
Read edgeMesh inletMesh.eMesh
    points      : 460
    edges       : 460
    boundingBox : (-37.8 -18 -0.504) (-37.8 18 32.4)

Refinement level according to distance to "inletMesh.eMesh" (460 points, 460 edges).
    level 0 for all cells within 0 metre.
Read edgeMesh outletMesh.eMesh
    points      : 460
    edges       : 460
    boundingBox : (117 -18 -0.504) (117 18 32.4)

Refinement level according to distance to "outletMesh.eMesh" (460 points, 460 edges).
    level 0 for all cells within 0 metre.
Read edgeMesh lateralMesh.eMesh
    points      : 836
    edges       : 836
    boundingBox : (-37.8 -18 -0.504) (117 18 32.4)

Refinement level according to distance to "lateralMesh.eMesh" (836 points, 836 edges).
    level 0 for all cells within 0 metre.
Read features in = 0.49 s


Determining initial surface intersections
-----------------------------------------

Edge intersection testing:
    Number of edges             : 74640
    Number of edges to retest   : 74640
    Number of intersected edges : 6116
Calculated surface intersections in = 4.13 s

Initial mesh : cells:23868  faces:74640  points:27018
Cells per refinement level:
    0	23868

Adding patches for surface regions
----------------------------------

Patch Type                Region                        
----- ----                ------                        
gtsModel:

5     wall                gtsModel                      

inlet:

6     patch               inlet                         

outlet:

7     patch               outlet                        

lateral:

8     patch               lateral                       

top:

9     patch               top                           

bottomNoSlip:

10    wall                bottomNoSlip                  

bottomSlip:

[2]  Foam::decompositionMethod::New 
[2] {
[2]     numberOfSubdomains 40;
[2]     method          scotch;
[2]     simpleCoeffs
[2]     {
[2]         n               ( 4 1 1 );
[2]         delta           0.001;
[2]     }
[2]     hierarchicalCoeffs
[2]     {
[2]         n               ( 3 2 1 );
[2]         delta           0.001;
[2]         order           xyz;
[2]     }
[2]     manualCoeffs
[2]     {
[2]         dataFile        "cellDecomposition";
[2]     }
[2]     scotchCoeffs
[2]     {
[2]         processorWeights ( 1 1 1 1 1 1 1 1 1 1 1 1 1 1 1 1 1 1 1 1 1 1 1 1 1 1 1 1 1 1 1 1 1 1 1 1 1 1 1 1 );
[2]     }
[2] }
[2] 
[2] Selecting decompositionMethod scotch
[5]  Foam::decompositionMethod::New 
[5] {
[5]     numberOfSubdomains 40;
[5]     method          scotch;
[5]     simpleCoeffs
[5]     {
[5]         n               ( 4 1 1 );
[5]         delta           0.001;
[5]     }
[5]     hierarchicalCoeffs
[5]     {
[5]         n               ( 3 2 1 );
[5]         delta           0.001;
[5]         order           xyz;
[5]     }
[5]     manualCoeffs
[5]     {
[5]         dataFile        "cellDecomposition";
[6]  Foam::decompositionMethod::New 
[6] {
[6]     numberOfSubdomains 40;
[6]     method          scotch;
[6]     simpleCoeffs
[6]     {
[6]         n               ( 4 1 1 );
[6]         delta           0.001;
[6]     }
[6]     hierarchicalCoeffs
[6]     {
[6]         n               ( 3 2 1 );
[6]         delta           0.001;
[6]         order           xyz;
[6]     }
[6]     manualCoeffs
[6]     {
[6]         dataFile        "cellDecomposition";
[6]     }
[6]     scotchCoeffs
[6]     {
[6]         processorWeights ( 1 1 1 1 1 1 1 1 1 1 1 1 1 1 1 1 1 1 1 1 1 1 1 1 1 1 1 1 1 1 1 1 1 1 1 1 1 1 1 1 );
[6]     }
[6] }
[6] 
[6] Selecting decompositionMethod scotch
[9]  Foam::decompositionMethod::New 
[9] {
[9]     numberOfSubdomains 40;
[9]     method          scotch;
[9]     simpleCoeffs
[9]     {
[9]         n               ( 4 1 1 );
[9]         delta           0.001;
[9]     }
[9]     hierarchicalCoeffs
[9]     {
[9]         n               ( 3 2 1 );
[9]         delta           0.001;
[9]         order           xyz;
[9]     }
[9]     manualCoeffs
[9]     {
[9]         dataFile        "cellDecomposition";
[9]     }
[9]     scotchCoeffs
[9]     {
[9]         processorWeights ( 1 1 1 1 1 1 1 1 1 1 1 1 1 1 1 1 1 1 1 1 1 1 1 1 1 1 1 1 1 1 1 1 1 1 1 1 1 1 1 1 );
[9]     }
[9] }
[9] 
[9] Selecting decompositionMethod scotch
[10]  Foam::decompositionMethod::New 
[10] {
[10]     numberOfSubdomains 40;
[10]     method          scotch;
[10]     simpleCoeffs
[10]     {
[10]         n               ( 4 1 1 );
[10]         delta           0.001;
[10]     }
[10]     hierarchicalCoeffs
[10]     {
[10]         n               ( 3 2 1 );
[10]         delta           0.001;
[10]         order           xyz;
[10]     }
[10]     manualCoeffs
[10]     {
[10]         dataFile        "cellDecomposition";
[10]     }
[10]     scotchCoeffs
[10]     {
[10]         processorWeights ( 1 1 1 1 1 1 1 1 1 1 1 1 1 1 1 1 1 1 1 1 1 1 1 1 1 1 1 1 1 1 1 1 1 1 1 1 1 1 1 1 );
[10]     }
[10] }
[10] 
[10] Selecting decompositionMethod scotch
[11]  Foam::decompositionMethod::New 
[11] {
[11]     numberOfSubdomains 40;
[11]     method          scotch;
[11]     simpleCoeffs
[11]     {
[11]         n               ( 4 1 1 );
[11]         delta           0.001;
[11]     }
[11]     hierarchicalCoeffs
[11]     {
[11]         n               ( 3 2 1 );
[11]         delta           0.001;
[11]         order           xyz;
[11]     }
[11]     manualCoeffs
[11]     {
[11]         dataFile        "cellDecomposition";
[11]     }
[11]     scotchCoeffs
[11]     {
[11]         processorWeights ( 1 1 1 1 1 1 1 1 1 1 1 1 1 1 1 1 1 1 1 1 1 1 1 1 1 1 1 1 1 1 1 1 1 1 1 1 1 1 1 1 );
[11]     }
[13]  Foam::decompositionMethod::New 
[13] {
[13]     numberOfSubdomains 40;
[13]     method          scotch;
[13]     simpleCoeffs
[13]     {
[13]         n               ( 4 1 1 );
[13]         delta           0.001;
[13]     }
[13]     hierarchicalCoeffs
[13]     {
[13]         n               ( 3 2 1 );
[13]         delta           0.001;
[13]         order           xyz;
[13]     }
[13]     manualCoeffs
[13]     {
[13]         dataFile        "cellDecomposition";
[13]     }
[13]     scotchCoeffs
[13]     {
[13]         processorWeights ( 1 1 1 1 1 1 1 1 1 1 1 1 1 1 1 1 1 1 1 1 1 1 1 1 1 1 1 1 1 1 1 1 1 1 1 1 1 1 1 1 );
[13]     }
[13] }
[13] 
[13] Selecting decompositionMethod scotch
[14]  Foam::decompositionMethod::New 
[14] {
[14]     numberOfSubdomains 40;
[14]     method          scotch;
[14]     simpleCoeffs
[14]     {
[14]         n               ( 4 1 1 );
[14]         delta           0.001;
[14]     }
[14]     hierarchicalCoeffs
[14]     {
[14]         n               ( 3 2 1 );
[14]         delta           0.001;
[14]         order           xyz;
[14]     }
[14]     manualCoeffs
[14]     {
[14]         dataFile        "cellDecomposition";
[14]     }
[14]     scotchCoeffs
[14]     {
[14]         processorWeights ( 1 1 1 1 1 1 1 1 1 1 1 1 1 1 1 1 1 1 1 1 1 1 1 1 1 1 1 1 1 1 1 1 1 1 1 1 1 1 1 1 );
[14]     }
[14] }
[14] 
[14] Selecting decompositionMethod scotch
[15]  Foam::decompositionMethod::New 
[15] {
[15]     numberOfSubdomains 40;
[15]     method          scotch;
[15]     simpleCoeffs
[15]     {
[15]         n               ( 4 1 1 );
[15]         delta           0.001;
[15]     }
[15]     hierarchicalCoeffs
[15]     {
[15]         n               ( 3 2 1 );
[15]         delta           0.001;
[15]         order           xyz;
[15]     }
[15]     manualCoeffs
[15]     {
[15]         dataFile        "cellDecomposition";
[15]     }
[15]     scotchCoeffs
[15]     {
[15]         processorWeights ( 1 1 1 1 1 1 1 1 1 1 1 1 1 1 1 1 1 1 1 1 1 1 1 1 1 1 1 1 1 1 1 1 1 1 1 1 1 1 1 1 );
[15]     }
[15] }
[15] 
[15] Selecting decompositionMethod scotch
[17]  Foam::decompositionMethod::New 
[17] {
[17]     numberOfSubdomains 40;
[17]     method          scotch;
[17]     simpleCoeffs
[17]     {
[17]         n               ( 4 1 1 );
[17]         delta           0.001;
[17]     }
[17]     hierarchicalCoeffs
[17]     {
[17]         n               ( 3 2 1 );
[17]         delta           0.001;
[17]         order           xyz;
[17]     }
[17]     manualCoeffs
[17]     {
[17]         dataFile        "cellDecomposition";
[17]     }
[17]     scotchCoeffs
[17]     {
[17]         processorWeights ( 1 1 1 1 1 1 1 1 1 1 1 1 1 1 1 1 1 1 1 1 1 1 1 1 1 1 1 1 1 1 1 1 1 1 1 1 1 1 1 1 );
[17]     }
[17] }
[17] 
[17] Selecting decompositionMethod scotch
[18]  Foam::decompositionMethod::New 
[18] {
[18]     numberOfSubdomains 40;
[18]     method          scotch;
[18]     simpleCoeffs
[18]     {
[18]         n               ( 4 1 1 );
[18]         delta           0.001;
[18]     }
[18]     hierarchicalCoeffs
[18]     {
[18]         n               ( 3 2 1 );
[18]         delta           0.001;
[18]         order           xyz;
[18]     }
[18]     manualCoeffs
[18]     {
[18]         dataFile        "cellDecomposition";
[18]     }
[18]     scotchCoeffs
[18]     {
[18]         processorWeights ( 1 1 1 1 1 1 1 1 1 1 1 1 1 1 1 1 1 1 1 1 1 1 1 1 1 1 1 1 1 1 1 1 1 1 1 1 1 1 1 1 );
[18]     }
[18] }
[18] 
[18] Selecting decompositionMethod scotch
[1]  Foam::decompositionMethod::New 
[1] {
[1]     numberOfSubdomains 40;
[1]     method          scotch;
[1]     simpleCoeffs
[1]     {
[1]         n               ( 4 1 1 );
[1]         delta           0.001;
[1]     }
[1]     hierarchicalCoeffs
[1]     {
[1]         n               ( 3 2 1 );
[1]         delta           0.001;
[1]         order           xyz;
[1]     }
[1]     manualCoeffs
[1]     {
[1]         dataFile        "cellDecomposition";
[1]     }
[1]     scotchCoeffs
[1]     {
[1]         processorWeights ( 1 1 1 1 1 1 1 1 1 1 1 1 1 1 1 1 1 1 1 1 1 1 1 1 1 1 1 1 1 1 1 1 1 1 1 1 1 1 1 1 );
[1]     }
[1] }
[1] 
[1] Selecting decompositionMethod scotch
[5]     }
[5]     scotchCoeffs
[5]     {
[5]         processorWeights ( 1 1 1 1 1 1 1 1 1 1 1 1 1 1 1 1 1 1 1 1 1 1 1 1 1 1 1 1 1 1 1 1 1 1 1 1 1 1 1 1 );
[5]     }
[5] }
[5] 
[5] Selecting decompositionMethod scotch
[12]  Foam::decompositionMethod::New 
[12] {
[12]     numberOfSubdomains 40;
[12]     method          scotch;
[12]     simpleCoeffs
[12]     {
[12]         n               ( 4 1 1 );
[12]         delta           0.001;
[12]     }
[12]     hierarchicalCoeffs
[12]     {
[12]         n               ( 3 2 1 );
[12]         delta           0.001;
[12]         order           xyz;
[12]     }
[12]     manualCoeffs
[12]     {
[12]         dataFile        "cellDecomposition";
[12]     }
[12]     scotchCoeffs
[12]     {
[11] }
[11] 
[11] Selecting decompositionMethod scotch
[16]  Foam::decompositionMethod::New 
[16] {
[16]     numberOfSubdomains 40;
[16]     method          scotch;
[16]     simpleCoeffs
[16]     {
[16]         n               ( 4 1 1 );
[16]         delta           0.001;
[16]     }
[16]     hierarchicalCoeffs
[16]     {
[16]         n               ( 3 2 1 );
[16]         delta           0.001;
[16]         order           xyz;
[16]     }
[16]     manualCoeffs
[16]     {
[16]         dataFile        "cellDecomposition";
[16]     }
[16]     scotchCoeffs
[16]     {
[16]         processorWeights ( 1 1 1 1 1 1 1 1 1 1 1 1 1 1 1 1 1 1 1 1 1 1 1 1 1 1 1 1 1 1 1 1 1 1 1 1 1 1 1 1 );
[16]     }
[16] }
[16] 
[16] Selecting decompositionMethod scotch
[19]  Foam::decompositionMethod::New 
[19] {
[19]     numberOfSubdomains 40;
[19]     method          scotch;
[19]     simpleCoeffs
[19]     {
[19]         n               ( 4 1 1 );
[19]         delta           0.001;
[19]     }
[19]     hierarchicalCoeffs
[19]     {
[19]         n               ( 3 2 1 );
[19]         delta           0.001;
[19]         order           xyz;
[19]     }
[19]     manualCoeffs
[19]     {
[19]         dataFile        "cellDecomposition";
[19]     }
[19]     scotchCoeffs
[19]     {
[19]         processorWeights ( 1 1 1 1 1 1 1 1 1 1 1 1 1 1 1 1 1 1 1 1 1 1 1 1 1 1 1 1 1 1 1 1 1 1 1 1 1 1 1 1 );
[19]     }
[19] }
[19] 
[19] Selecting decompositionMethod scotch
[3]  Foam::decompositionMethod::New 
[3] {
[3]     numberOfSubdomains 40;
[3]     method          scotch;
[3]     simpleCoeffs
[3]     {
[3]         n               ( 4 1 1 );
[3]         delta           0.001;
[3]     }
[3]     hierarchicalCoeffs
[3]     {
[3]         n               ( 3 2 1 );
[4]  Foam::decompositionMethod::New 
[4] {
[4]     numberOfSubdomains 40;
[4]     method          scotch;
[4]     simpleCoeffs
[4]     {
[4]         n               ( 4 1 1 );
[4]         delta           0.001;
[4]     }
[4]     hierarchicalCoeffs
[4]     {
[4]         n               ( 3 2 1 );
[4]         delta           0.001;
[4]         order           xyz;
[4]     }
[4]     manualCoeffs
[4]     {
[4]         dataFile        "cellDecomposition";
[4]     }
[4]     scotchCoeffs
[4]     {
[4]         processorWeights ( 1 1 1 1 1 1 1 1 1 1 1 1 1 1 1 1 1 1 1 1 1 1 1 1 1 1 1 1 1 1 1 1 1 1 1 1 1 1 1 1 );
[4]     }
[4] }
[4] 
[4] Selecting decompositionMethod scotch
[7]  Foam::decompositionMethod::New 
[7] {
[7]     numberOfSubdomains 40;
[7]     method          scotch;
[7]     simpleCoeffs
[7]     {
[7]         n               ( 4 1 1 );
[7]         delta           0.001;
[7]     }
[7]     hierarchicalCoeffs
[7]     {
[7]         n               ( 3 2 1 );
[7]         delta           0.001;
[7]         order           xyz;
[7]     }
[7]     manualCoeffs
[7]     {
[7]         dataFile        "cellDecomposition";
[7]     }
[7]     scotchCoeffs
[7]     {
[7]         processorWeights ( 1 1 1 1 1 1 1 1 1 1 1 1 1 1 1 1 1 1 1 1 1 1 1 1 1 1 1 1 1 1 1 1 1 1 1 1 1 1 1 1 );
[7]     }
[7] }
[7] 
[7] Selecting decompositionMethod scotch
[8]  Foam::decompositionMethod::New 
[8] {
[8]     numberOfSubdomains 40;
[8]     method          scotch;
[8]     simpleCoeffs
[8]     {
[8]         n               ( 4 1 1 );
[8]         delta           0.001;
[8]     }
[8]     hierarchicalCoeffs
[8]     {
[8]         n               ( 3 2 1 );
[8]         delta           0.001;
[8]         order           xyz;
[8]     }
[8]     manualCoeffs
[8]     {
[8]         dataFile        "cellDecomposition";
[8]     }
[8]     scotchCoeffs
[8]     {
[8]         processorWeights ( 1 1 1 1 1 1 1 1 1 1 1 1 1 1 1 1 1 1 1 1 1 1 1 1 1 1 1 1 1 1 1 1 1 1 1 1 1 1 1 1 );
[8]     }
[8] }
[8] 
[12]         processorWeights ( 1 1 1 1 1 1 1 1 1 1 1 1 1 1 1 1 1 1 1 1 1 1 1 1 1 1 1 1 1 1 1 1 1 1 1 1 1 1 1 1 );
[12]     }
[12] }
[12] 
[12] Selecting decompositionMethod scotch
[3]         delta           0.001;
[3]         order           xyz;
[3]     }
[3]     manualCoeffs
[3]     {
[3]         dataFile        "cellDecomposition";
[3]     }
[3]     scotchCoeffs
[3]     {
[3]         processorWeights ( 1 1 1 1 1 1 1 1 1 1 1 1 1 1 1 1 1 1 1 1 1 1 1 1 1 1 1 1 1 1 1 1 1 1 1 1 1 1 1 1 );
[3]     }
[3] }
[3] 
[8] Selecting decompositionMethod scotch
11    wall                bottomSlip                    

Added patches in = 0.01 s

[0]  Foam::decompositionMethod::New 
[0] {
[0]     numberOfSubdomains 40;
[3] Selecting decompositionMethod scotch
[0]     method          scotch;
[0]     simpleCoeffs
[0]     {
[0]         n               ( 4 1 1 );
[0]         delta           0.001;
[0]     }
[0]     hierarchicalCoeffs
[0]     {
[0]         n               ( 3 2 1 );
[0]         delta           0.001;
[0]         order           xyz;
[0]     }
[0]     manualCoeffs
[0]     {
[0]         dataFile        "cellDecomposition";
[0]     }
[0]     scotchCoeffs
[0]     {
[0]         processorWeights ( 1 1 1 1 1 1 1 1 1 1 1 1 1 1 1 1 1 1 1 1 1 1 1 1 1 1 1 1 1 1 1 1 1 1 1 1 1 1 1 1 );
[0]     }
[0] }
[0] 
[0] Selecting decompositionMethod scotch
Layer thickness specified as final layer and expansion ratio.

Refinement phase
----------------

[20]  Foam::decompositionMethod::New 
[20] {
[20]     numberOfSubdomains 40;
[20]     method          scotch;
[20]     simpleCoeffs
[20]     {
[20]         n               ( 4 1 1 );
[20]         delta           0.001;
[20]     }
[20]     hierarchicalCoeffs
[20]     {
[20]         n               ( 3 2 1 );
[20]         delta           0.001;
[20]         order           xyz;
[20]     }
[20]     manualCoeffs
[20]     {
[20]         dataFile        "cellDecomposition";
[20]     }
[20]     scotchCoeffs
[20]     {
[20]         processorWeights ( 1 1 1 1 1 1 1 1 1 1 1 1 1 1 1 1 1 1 1 1 1 1 1 1 1 1 1 1 1 1 1 1 1 1 1 1 1 1 1 1 );
[20]     }
[20] }
[20] 
[20] Selecting decompositionMethod scotch
[21]  Foam::decompositionMethod::New 
[21] {
[21]     numberOfSubdomains 40;
[21]     method          scotch;
[21]     simpleCoeffs
[21]     {
[21]         n               ( 4 1 1 );
[21]         delta           0.001;
[21]     }
[21]     hierarchicalCoeffs
[21]     {
[21]         n               ( 3 2 1 );
[21]         delta           0.001;
[21]         order           xyz;
[21]     }
[21]     manualCoeffs
[21]     {
[21]         dataFile        "cellDecomposition";
[21]     }
[21]     scotchCoeffs
[21]     {
[21]         processorWeights ( 1 1 1 1 1 1 1 1 1 1 1 1 1 1 1 1 1 1 1 1 1 1 1 1 1 1 1 1 1 1 1 1 1 1 1 1 1 1 1 1 );
[21]     }
[21] }
[21] 
[21] Selecting decompositionMethod scotch
[22]  Foam::decompositionMethod::New 
[22] {
[22]     numberOfSubdomains 40;
[22]     method          scotch;
[22]     simpleCoeffs
[22]     {
[22]         n               ( 4 1 1 );
[22]         delta           0.001;
[22]     }
[22]     hierarchicalCoeffs
[22]     {
[22]         n               ( 3 2 1 );
[22]         delta           0.001;
[22]         order           xyz;
[22]     }
[22]     manualCoeffs
[22]     {
[22]         dataFile        "cellDecomposition";
[22]     }
[22]     scotchCoeffs
[22]     {
[22]         processorWeights ( 1 1 1 1 1 1 1 1 1 1 1 1 1 1 1 1 1 1 1 1 1 1 1 1 1 1 1 1 1 1 1 1 1 1 1 1 1 1 1 1 );
[22]     }
[22] }
[22] 
[22] Selecting decompositionMethod scotch
[23]  Foam::decompositionMethod::New 
[23] {
[23]     numberOfSubdomains 40;
[23]     method          scotch;
[23]     simpleCoeffs
[23]     {
[23]         n               ( 4 1 1 );
[23]         delta           0.001;
[23]     }
[23]     hierarchicalCoeffs
[23]     {
[23]         n               ( 3 2 1 );
[23]         delta           0.001;
[23]         order           xyz;
[23]     }
[23]     manualCoeffs
[23]     {
[23]         dataFile        "cellDecomposition";
[23]     }
[23]     scotchCoeffs
[23]     {
[23]         processorWeights ( 1 1 1 1 1 1 1 1 1 1 1 1 1 1 1 1 1 1 1 1 1 1 1 1 1 1 1 1 1 1 1 1 1 1 1 1 1 1 1 1 );
[23]     }
[23] }
[23] 
[23] Selecting decompositionMethod scotch
[24]  Foam::decompositionMethod::New 
[24] {
[24]     numberOfSubdomains 40;
[24]     method          scotch;
[24]     simpleCoeffs
[24]     {
[24]         n               ( 4 1 1 );
[24]         delta           0.001;
[24]     }
[24]     hierarchicalCoeffs
[24]     {
[24]         n               ( 3 2 1 );
[24]         delta           0.001;
[24]         order           xyz;
[24]     }
[24]     manualCoeffs
[24]     {
[24]         dataFile        "cellDecomposition";
[24]     }
[24]     scotchCoeffs
[24]     {
[24]         processorWeights ( 1 1 1 1 1 1 1 1 1 1 1 1 1 1 1 1 1 1 1 1 1 1 1 1 1 1 1 1 1 1 1 1 1 1 1 1 1 1 1 1 );
[24]     }
[24] }
[24] 
[24] Selecting decompositionMethod scotch
[25]  Foam::decompositionMethod::New 
[25] {
[25]     numberOfSubdomains 40;
[25]     method          scotch;
[25]     simpleCoeffs
[25]     {
[25]         n               ( 4 1 1 );
[25]         delta           0.001;
[25]     }
[25]     hierarchicalCoeffs
[25]     {
[25]         n               ( 3 2 1 );
[25]         delta           0.001;
[25]         order           xyz;
[25]     }
[25]     manualCoeffs
[25]     {
[25]         dataFile        "cellDecomposition";
[25]     }
[25]     scotchCoeffs
[25]     {
[25]         processorWeights ( 1 1 1 1 1 1 1 1 1 1 1 1 1 1 1 1 1 1 1 1 1 1 1 1 1 1 1 1 1 1 1 1 1 1 1 1 1 1 1 1 );
[25]     }
[25] }
[25] 
[25] Selecting decompositionMethod scotch
[26]  Foam::decompositionMethod::New 
[26] {
[26]     numberOfSubdomains 40;
[26]     method          scotch;
[26]     simpleCoeffs
[26]     {
[26]         n               ( 4 1 1 );
[26]         delta           0.001;
[26]     }
[26]     hierarchicalCoeffs
[26]     {
[26]         n               ( 3 2 1 );
[26]         delta           0.001;
[26]         order           xyz;
[26]     }
[26]     manualCoeffs
[26]     {
[26]         dataFile        "cellDecomposition";
[26]     }
[26]     scotchCoeffs
[26]     {
[26]         processorWeights ( 1 1 1 1 1 1 1 1 1 1 1 1 1 1 1 1 1 1 1 1 1 1 1 1 1 1 1 1 1 1 1 1 1 1 1 1 1 1 1 1 );
[26]     }
[26] }
[26] 
[26] Selecting decompositionMethod scotch
[27]  Foam::decompositionMethod::New 
[27] {
[27]     numberOfSubdomains 40;
[27]     method          scotch;
[27]     simpleCoeffs
[27]     {
[27]         n               ( 4 1 1 );
[27]         delta           0.001;
[27]     }
[27]     hierarchicalCoeffs
[27]     {
[27]         n               ( 3 2 1 );
[27]         delta           0.001;
[27]         order           xyz;
[27]     }
[27]     manualCoeffs
[27]     {
[27]         dataFile        "cellDecomposition";
[27]     }
[27]     scotchCoeffs
[27]     {
[27]         processorWeights ( 1 1 1 1 1 1 1 1 1 1 1 1 1 1 1 1 1 1 1 1 1 1 1 1 1 1 1 1 1 1 1 1 1 1 1 1 1 1 1 1 );
[27]     }
[27] }
[27] 
[27] Selecting decompositionMethod scotch
[28]  Foam::decompositionMethod::New 
[28] {
[28]     numberOfSubdomains 40;
[28]     method          scotch;
[28]     simpleCoeffs
[28]     {
[28]         n               ( 4 1 1 );
[28]         delta           0.001;
[28]     }
[28]     hierarchicalCoeffs
[28]     {
[28]         n               ( 3 2 1 );
[28]         delta           0.001;
[28]         order           xyz;
[28]     }
[28]     manualCoeffs
[28]     {
[28]         dataFile        "cellDecomposition";
[28]     }
[28]     scotchCoeffs
[28]     {
[28]         processorWeights ( 1 1 1 1 1 1 1 1 1 1 1 1 1 1 1 1 1 1 1 1 1 1 1 1 1 1 1 1 1 1 1 1 1 1 1 1 1 1 1 1 );
[28]     }
[28] }
[28] 
[28] Selecting decompositionMethod scotch
[29]  Foam::decompositionMethod::New 
[29] {
[29]     numberOfSubdomains 40;
[29]     method          scotch;
[29]     simpleCoeffs
[29]     {
[29]         n               ( 4 1 1 );
[29]         delta           0.001;
[29]     }
[29]     hierarchicalCoeffs
[29]     {
[29]         n               ( 3 2 1 );
[29]         delta           0.001;
[29]         order           xyz;
[29]     }
[29]     manualCoeffs
[29]     {
[29]         dataFile        "cellDecomposition";
[29]     }
[29]     scotchCoeffs
[29]     {
[29]         processorWeights ( 1 1 1 1 1 1 1 1 1 1 1 1 1 1 1 1 1 1 1 1 1 1 1 1 1 1 1 1 1 1 1 1 1 1 1 1 1 1 1 1 );
[29]     }
[29] }
[29] 
[29] Selecting decompositionMethod scotch
[30]  Foam::decompositionMethod::New 
[30] {
[30]     numberOfSubdomains 40;
[30]     method          scotch;
[30]     simpleCoeffs
[30]     {
[30]         n               ( 4 1 1 );
[30]         delta           0.001;
[30]     }
[30]     hierarchicalCoeffs
[30]     {
[30]         n               ( 3 2 1 );
[30]         delta           0.001;
[30]         order           xyz;
[30]     }
[30]     manualCoeffs
[30]     {
[30]         dataFile        "cellDecomposition";
[30]     }
[30]     scotchCoeffs
[30]     {
[30]         processorWeights ( 1 1 1 1 1 1 1 1 1 1 1 1 1 1 1 1 1 1 1 1 1 1 1 1 1 1 1 1 1 1 1 1 1 1 1 1 1 1 1 1 );
[30]     }
[30] }
[30] 
[30] Selecting decompositionMethod scotch
[31]  Foam::decompositionMethod::New 
[31] {
[31]     numberOfSubdomains 40;
[31]     method          scotch;
[31]     simpleCoeffs
[31]     {
[31]         n               ( 4 1 1 );
[31]         delta           0.001;
[31]     }
[31]     hierarchicalCoeffs
[31]     {
[31]         n               ( 3 2 1 );
[31]         delta           0.001;
[31]         order           xyz;
[31]     }
[31]     manualCoeffs
[31]     {
[31]         dataFile        "cellDecomposition";
[31]     }
[31]     scotchCoeffs
[31]     {
[31]         processorWeights ( 1 1 1 1 1 1 1 1 1 1 1 1 1 1 1 1 1 1 1 1 1 1 1 1 1 1 1 1 1 1 1 1 1 1 1 1 1 1 1 1 );
[31]     }
[31] }
[31] 
[31] Selecting decompositionMethod scotch
[32]  Foam::decompositionMethod::New 
[32] {
[32]     numberOfSubdomains 40;
[32]     method          scotch;
[32]     simpleCoeffs
[32]     {
[32]         n               ( 4 1 1 );
[32]         delta           0.001;
[32]     }
[32]     hierarchicalCoeffs
[32]     {
[32]         n               ( 3 2 1 );
[32]         delta           0.001;
[32]         order           xyz;
[32]     }
[32]     manualCoeffs
[32]     {
[32]         dataFile        "cellDecomposition";
[32]     }
[32]     scotchCoeffs
[32]     {
[32]         processorWeights ( 1 1 1 1 1 1 1 1 1 1 1 1 1 1 1 1 1 1 1 1 1 1 1 1 1 1 1 1 1 1 1 1 1 1 1 1 1 1 1 1 );
[32]     }
[32] }
[32] 
[32] Selecting decompositionMethod scotch
[33]  Foam::decompositionMethod::New 
[33] {
[33]     numberOfSubdomains 40;
[33]     method          scotch;
[33]     simpleCoeffs
[33]     {
[33]         n               ( 4 1 1 );
[33]         delta           0.001;
[33]     }
[33]     hierarchicalCoeffs
[33]     {
[33]         n               ( 3 2 1 );
[33]         delta           0.001;
[33]         order           xyz;
[33]     }
[33]     manualCoeffs
[33]     {
[33]         dataFile        "cellDecomposition";
[33]     }
[33]     scotchCoeffs
[33]     {
[33]         processorWeights ( 1 1 1 1 1 1 1 1 1 1 1 1 1 1 1 1 1 1 1 1 1 1 1 1 1 1 1 1 1 1 1 1 1 1 1 1 1 1 1 1 );
[33]     }
[33] }
[33] 
[33] Selecting decompositionMethod scotch
[34]  Foam::decompositionMethod::New 
[34] {
[34]     numberOfSubdomains 40;
[34]     method          scotch;
[34]     simpleCoeffs
[34]     {
[34]         n               ( 4 1 1 );
[34]         delta           0.001;
[34]     }
[34]     hierarchicalCoeffs
[34]     {
[34]         n               ( 3 2 1 );
[34]         delta           0.001;
[34]         order           xyz;
[34]     }
[34]     manualCoeffs
[34]     {
[34]         dataFile        "cellDecomposition";
[34]     }
[34]     scotchCoeffs
[34]     {
[34]         processorWeights ( 1 1 1 1 1 1 1 1 1 1 1 1 1 1 1 1 1 1 1 1 1 1 1 1 1 1 1 1 1 1 1 1 1 1 1 1 1 1 1 1 );
[34]     }
[34] }
[34] 
[34] Selecting decompositionMethod scotch
[35]  Foam::decompositionMethod::New 
[35] {
[35]     numberOfSubdomains 40;
[35]     method          scotch;
[35]     simpleCoeffs
[35]     {
[35]         n               ( 4 1 1 );
[35]         delta           0.001;
[35]     }
[35]     hierarchicalCoeffs
[35]     {
[35]         n               ( 3 2 1 );
[35]         delta           0.001;
[35]         order           xyz;
[35]     }
[35]     manualCoeffs
[35]     {
[35]         dataFile        "cellDecomposition";
[35]     }
[35]     scotchCoeffs
[35]     {
[35]         processorWeights ( 1 1 1 1 1 1 1 1 1 1 1 1 1 1 1 1 1 1 1 1 1 1 1 1 1 1 1 1 1 1 1 1 1 1 1 1 1 1 1 1 );
[35]     }
[35] }
[35] 
[35] Selecting decompositionMethod scotch
[36]  Foam::decompositionMethod::New 
[36] {
[36]     numberOfSubdomains 40;
[36]     method          scotch;
[36]     simpleCoeffs
[36]     {
[36]         n               ( 4 1 1 );
[36]         delta           0.001;
[36]     }
[36]     hierarchicalCoeffs
[36]     {
[36]         n               ( 3 2 1 );
[36]         delta           0.001;
[36]         order           xyz;
[36]     }
[36]     manualCoeffs
[36]     {
[36]         dataFile        "cellDecomposition";
[36]     }
[36]     scotchCoeffs
[36]     {
[36]         processorWeights ( 1 1 1 1 1 1 1 1 1 1 1 1 1 1 1 1 1 1 1 1 1 1 1 1 1 1 1 1 1 1 1 1 1 1 1 1 1 1 1 1 );
[36]     }
[36] }
[36] 
[36] Selecting decompositionMethod scotch
[37]  Foam::decompositionMethod::New 
[37] {
[37]     numberOfSubdomains 40;
[37]     method          scotch;
[37]     simpleCoeffs
[37]     {
[37]         n               ( 4 1 1 );
[37]         delta           0.001;
[37]     }
[37]     hierarchicalCoeffs
[37]     {
[37]         n               ( 3 2 1 );
[37]         delta           0.001;
[37]         order           xyz;
[37]     }
[37]     manualCoeffs
[37]     {
[37]         dataFile        "cellDecomposition";
[37]     }
[37]     scotchCoeffs
[37]     {
[37]         processorWeights ( 1 1 1 1 1 1 1 1 1 1 1 1 1 1 1 1 1 1 1 1 1 1 1 1 1 1 1 1 1 1 1 1 1 1 1 1 1 1 1 1 );
[37]     }
[37] }
[37] 
[37] Selecting decompositionMethod scotch
[38]  Foam::decompositionMethod::New 
[38] {
[38]     numberOfSubdomains 40;
[38]     method          scotch;
[38]     simpleCoeffs
[38]     {
[38]         n               ( 4 1 1 );
[38]         delta           0.001;
[38]     }
[38]     hierarchicalCoeffs
[38]     {
[38]         n               ( 3 2 1 );
[38]         delta           0.001;
[38]         order           xyz;
[38]     }
[38]     manualCoeffs
[38]     {
[38]         dataFile        "cellDecomposition";
[38]     }
[38]     scotchCoeffs
[38]     {
[38]         processorWeights ( 1 1 1 1 1 1 1 1 1 1 1 1 1 1 1 1 1 1 1 1 1 1 1 1 1 1 1 1 1 1 1 1 1 1 1 1 1 1 1 1 );
[38]     }
[38] }
[38] 
[38] Selecting decompositionMethod scotch
[39]  Foam::decompositionMethod::New 
[39] {
[39]     numberOfSubdomains 40;
[39]     method          scotch;
[39]     simpleCoeffs
[39]     {
[39]         n               ( 4 1 1 );
[39]         delta           0.001;
[39]     }
[39]     hierarchicalCoeffs
[39]     {
[39]         n               ( 3 2 1 );
[39]         delta           0.001;
[39]         order           xyz;
[39]     }
[39]     manualCoeffs
[39]     {
[39]         dataFile        "cellDecomposition";
[39]     }
[39]     scotchCoeffs
[39]     {
[39]         processorWeights ( 1 1 1 1 1 1 1 1 1 1 1 1 1 1 1 1 1 1 1 1 1 1 1 1 1 1 1 1 1 1 1 1 1 1 1 1 1 1 1 1 );
[39]     }
[39] }
[39] 
[39] Selecting decompositionMethod scotch
Found point (80.0001 0.0001 15.43) in cell 538 on processor 22

Feature refinement iteration 0
------------------------------

Marked for refinement due to explicit features             : 30 cells.
Determined cells to refine in = 0.03 s
Selected for feature refinement : 30 cells (out of 23868)
Edge intersection testing:
    Number of edges             : 75411
    Number of edges to retest   : 1152
    Number of intersected edges : 6260
Refined mesh in = 0.02 s
After refinement feature refinement iteration 0 : cells:24078  faces:75411  points:27387
Cells per refinement level:
    0	23838
    1	240
Balanced mesh in = 0.45 s
After balancing feature refinement iteration 0 : cells:24078  faces:75411  points:27387
Cells per refinement level:
    0	23838
    1	240

Feature refinement iteration 1
------------------------------

Marked for refinement due to explicit features             : 60 cells.
Determined cells to refine in = 0.51 s
Selected for feature refinement : 102 cells (out of 24078)
Edge intersection testing:
    Number of edges             : 78003
    Number of edges to retest   : 3843
    Number of intersected edges : 6626
Refined mesh in = 0.02 s
After refinement feature refinement iteration 1 : cells:24792  faces:78003  points:28609
Cells per refinement level:
    0	23796
    1	516
    2	480
Balanced mesh in = 0.28 s
After balancing feature refinement iteration 1 : cells:24792  faces:78003  points:28609
Cells per refinement level:
    0	23796
    1	516
    2	480

Feature refinement iteration 2
------------------------------

Marked for refinement due to explicit features             : 112 cells.
Determined cells to refine in = 0.06 s
Selected for feature refinement : 226 cells (out of 24792)
Edge intersection testing:
    Number of edges             : 83601
    Number of edges to retest   : 8380
    Number of intersected edges : 7634
Refined mesh in = 0.02 s
After refinement feature refinement iteration 2 : cells:26374  faces:83601  points:31125
Cells per refinement level:
    0	23782
    1	528
    2	1168
    3	896
Balanced mesh in = 0.18 s
After balancing feature refinement iteration 2 : cells:26374  faces:83601  points:31125
Cells per refinement level:
    0	23782
    1	528
    2	1168
    3	896

Feature refinement iteration 3
------------------------------

Marked for refinement due to explicit features             : 0 cells.
Determined cells to refine in = 0.44 s
Selected for feature refinement : 0 cells (out of 26374)
Stopping refining since too few cells selected.


Surface refinement iteration 0
------------------------------

Marked for refinement due to surface intersection          : 88 cells.
Marked for refinement due to curvature/regions             : 124 cells.
Determined cells to refine in = 0.01 s
Selected for refinement : 220 cells (out of 26374)
Edge intersection testing:
    Number of edges             : 88569
    Number of edges to retest   : 8977
    Number of intersected edges : 8070
Refined mesh in = 0.02 s
After refinement surface refinement iteration 0 : cells:27914  faces:88569  points:32995
Cells per refinement level:
    0	23776
    1	486
    2	1764
    3	1888
Balanced mesh in = 0.3 s
After balancing surface refinement iteration 0 : cells:27914  faces:88569  points:32995
Cells per refinement level:
    0	23776
    1	486
    2	1764
    3	1888

Surface refinement iteration 1
------------------------------

Marked for refinement due to surface intersection          : 2 cells.
Marked for refinement due to curvature/regions             : 84 cells.
Determined cells to refine in = 0.01 s
Selected for refinement : 92 cells (out of 27914)
Edge intersection testing:
    Number of edges             : 90738
    Number of edges to retest   : 3702
    Number of intersected edges : 8322
Refined mesh in = 0.02 s
After refinement surface refinement iteration 1 : cells:28558  faces:90738  points:33875
Cells per refinement level:
    0	23774
    1	496
    2	1728
    3	2560
Balanced mesh in = 0.28 s
After balancing surface refinement iteration 1 : cells:28558  faces:90738  points:33875
Cells per refinement level:
    0	23774
    1	496
    2	1728
    3	2560

Surface refinement iteration 2
------------------------------

Marked for refinement due to surface intersection          : 0 cells.
Marked for refinement due to curvature/regions             : 6 cells.
Determined cells to refine in = 0.01 s
Selected for refinement : 6 cells (out of 28558)
Edge intersection testing:
    Number of edges             : 90864
    Number of edges to retest   : 470
    Number of intersected edges : 8322
Refined mesh in = 0.02 s
After refinement surface refinement iteration 2 : cells:28600  faces:90864  points:33917
Cells per refinement level:
    0	23774
    1	496
    2	1722
    3	2608
Skipping balancing since max unbalance 0.0335664 is less than allowable 0.1

Surface refinement iteration 3
------------------------------

Marked for refinement due to surface intersection          : 0 cells.
Marked for refinement due to curvature/regions             : 0 cells.
Determined cells to refine in = 0.01 s
Selected for refinement : 0 cells (out of 28600)
Stopping refining since too few cells selected.


Removing mesh beyond surface intersections
------------------------------------------

Found point (80.0001 0.0001 15.43) in global region 0 out of 2 regions.
Keeping all cells in region 0 containing point (80.0001 0.0001 15.43)
Selected for keeping : 28158 cells.
Edge intersection testing:
    Number of edges             : 89751
    Number of edges to retest   : 858
    Number of intersected edges : 8322

Shell refinement iteration 0
----------------------------

Marked for refinement due to distance to explicit features : 0 cells.
Marked for refinement due to refinement shells             : 2640 cells.
Determined cells to refine in = 0.05 s
Selected for internal refinement : 4089 cells (out of 28158)
Edge intersection testing:
    Number of edges             : 182850
    Number of edges to retest   : 109844
    Number of intersected edges : 13930
Refined mesh in = 0.07 s
After refinement shell refinement iteration 0 : cells:56781  faces:182850  points:69653
Cells per refinement level:
    0	23595
    1	1559
    2	3035
    3	9728
    4	18864
Balanced mesh in = 0.53 s
After balancing shell refinement iteration 0 : cells:56781  faces:182850  points:69653
Cells per refinement level:
    0	23595
    1	1559
    2	3035
    3	9728
    4	18864

Shell refinement iteration 1
----------------------------

Marked for refinement due to distance to explicit features : 0 cells.
Marked for refinement due to refinement shells             : 2956 cells.
Determined cells to refine in = 0.02 s
Selected for internal refinement : 3225 cells (out of 56781)
Edge intersection testing:
    Number of edges             : 253569
    Number of edges to retest   : 113337
    Number of intersected edges : 18235
Refined mesh in = 0.05 s
After refinement shell refinement iteration 1 : cells:79356  faces:253569  points:95012
Cells per refinement level:
    0	23570
    1	1748
    2	2890
    3	8636
    4	42512
Balanced mesh in = 0.63 s
After balancing shell refinement iteration 1 : cells:79356  faces:253569  points:95012
Cells per refinement level:
    0	23570
    1	1748
    2	2890
    3	8636
    4	42512

Shell refinement iteration 2
----------------------------

Marked for refinement due to distance to explicit features : 0 cells.
Marked for refinement due to refinement shells             : 164 cells.
Determined cells to refine in = 0.01 s
Selected for internal refinement : 174 cells (out of 79356)
Edge intersection testing:
    Number of edges             : 257076
    Number of edges to retest   : 9658
    Number of intersected edges : 18238
Refined mesh in = 0.04 s
After refinement shell refinement iteration 2 : cells:80574  faces:257076  points:96085
Cells per refinement level:
    0	23565
    1	1784
    2	2921
    3	8480
    4	43824
Balanced mesh in = 0.61 s
After balancing shell refinement iteration 2 : cells:80574  faces:257076  points:96085
Cells per refinement level:
    0	23565
    1	1784
    2	2921
    3	8480
    4	43824

Shell refinement iteration 3
----------------------------

Marked for refinement due to distance to explicit features : 0 cells.
Marked for refinement due to refinement shells             : 0 cells.
Determined cells to refine in = 0.02 s
Selected for internal refinement : 2 cells (out of 80574)
Edge intersection testing:
    Number of edges             : 257118
    Number of edges to retest   : 204
    Number of intersected edges : 18238
Refined mesh in = 0.03 s
After refinement shell refinement iteration 3 : cells:80588  faces:257118  points:96099
Cells per refinement level:
    0	23563
    1	1800
    2	2921
    3	8480
    4	43824
Skipping balancing since max unbalance 0.0134062 is less than allowable 0.1

Shell refinement iteration 4
----------------------------

Marked for refinement due to distance to explicit features : 0 cells.
Marked for refinement due to refinement shells             : 0 cells.
Determined cells to refine in = 0.01 s
Selected for internal refinement : 0 cells (out of 80588)
Stopping refining since too few cells selected.


Dangling coarse cells refinement iteration 0
--------------------------------------------

Determined cells to refine in = 0.01 s
Selected for refinement : 0 cells (out of 80588)
Stopping refining since too few cells selected.


Dangling coarse cells refinement iteration 0
--------------------------------------------

Determined cells to refine in = 0.03 s
Selected for refinement : 0 cells (out of 80588)
Stopping refining since too few cells selected.


Splitting mesh at surface intersections
---------------------------------------

Introducing baffles for 18238 faces that are intersected by the surface.

Edge intersection testing:
    Number of edges             : 268042
    Number of edges to retest   : 113634
    Number of intersected edges : 29162
Created baffles in = 0.25 s


After introducing baffles : cells:80588  faces:268042  points:96111
Cells per refinement level:
    0	23563
    1	1800
    2	2921
    3	8480
    4	43824

Introducing baffles to block off problem cells
----------------------------------------------

markFacesOnProblemCells : marked 0 additional internal faces to be converted into baffles.
Analyzed problem cells in = 0.03 s


Introducing baffles to delete problem cells.

Edge intersection testing:
    Number of edges             : 268042
    Number of edges to retest   : 0
    Number of intersected edges : 29162
Created baffles in = 0.02 s


After introducing baffles : cells:80588  faces:268042  points:96111
Cells per refinement level:
    0	23563
    1	1800
    2	2921
    3	8480
    4	43824

Remove unreachable sections of mesh
-----------------------------------

Keeping all cells in region 0 containing point (80.0001 0.0001 15.43)
Selected for keeping : 59500 cells.
Edge intersection testing:
    Number of edges             : 195131
    Number of edges to retest   : 0
    Number of intersected edges : 18238
Split mesh in = 0.07 s


After subsetting : cells:59500  faces:195131  points:76283
Cells per refinement level:
    0	23563
    1	1800
    2	2921
    3	7412
    4	23804

Handling cells with snap problems
---------------------------------

Introducing baffles for 18238 faces that are intersected by the surface.

Edge intersection testing:
    Number of edges             : 195131
    Number of edges to retest   : 73093
    Number of intersected edges : 18238
Created baffles in = 0.04 s


After introducing baffles : cells:59500  faces:195131  points:76283
Cells per refinement level:
    0	23563
    1	1800
    2	2921
    3	7412
    4	23804

Introducing baffles to block off problem cells
----------------------------------------------

markFacesOnProblemCells : marked 0 additional internal faces to be converted into baffles.
Analyzed problem cells in = 0.02 s


Introducing baffles to delete problem cells.

Edge intersection testing:
    Number of edges             : 195131
    Number of edges to retest   : 0
    Number of intersected edges : 18238
Created baffles in = 0.02 s


After introducing baffles : cells:59500  faces:195131  points:76283
Cells per refinement level:
    0	23563
    1	1800
    2	2921
    3	7412
    4	23804

Remove unreachable sections of mesh
-----------------------------------

Keeping all cells in region 0 containing point (80.0001 0.0001 15.43)
Selected for keeping : 59500 cells.
Edge intersection testing:
    Number of edges             : 195131
    Number of edges to retest   : 0
    Number of intersected edges : 18238
Split mesh in = 0.06 s


After subsetting : cells:59500  faces:195131  points:76283
Cells per refinement level:
    0	23563
    1	1800
    2	2921
    3	7412
    4	23804

Merge free-standing baffles
---------------------------

freeStandingBaffles : detected 0 free-standing baffles out of 0

Detected free-standing baffles : 0
Merged free-standing baffles in = 0.01 s


dupNonManifoldPoints : Found : 0 non-manifold points (out of 88494)
Edge intersection testing:
    Number of edges             : 195131
    Number of edges to retest   : 0
    Number of intersected edges : 18238
Detected unsplittable baffles : 0

Merge refined boundary faces
----------------------------

Merging 0 sets of faces.

No faces merged ...

Merging all points on surface that
- are used by only two boundary faces and
- make an angle with a cosine of more than 0.707107.

No straight edges simplified and no points removed ...

Doing final balancing
---------------------

Found 0 zoned faces to keep together.
Found 0 separated coupled faces to keep together.
Refined mesh : cells:59500  faces:195131  points:76283
Cells per refinement level:
    0	23563
    1	1800
    2	2921
    3	7412
    4	23804
Writing mesh to time constant
Wrote mesh in = 0.64 s.
Mesh refined in = 5.96 s.

Morphing phase
--------------


Snapping to features in 10 iterations ...
Constructing mesh displacer ...
Using mesh parameters 
{
    maxNonOrtho     65;
    maxBoundarySkewness 20;
    maxInternalSkewness 4;
    maxConcave      80;
    minVol          1e-13;
    minTetQuality   1e-15;
    minArea         -1;
    minTwist        0.02;
    minDeterminant  1e-05;
    minFaceWeight   0.02;
    minVolRatio     0.01;
    minTriangleTwist -1;
    nSmoothScale    4;
    errorReduction  0.75;
}


Checking initial mesh ...
Checking faces in error :
    non-orthogonality > 65  degrees                        : 0
    faces with face pyramid volume < 1e-13                 : 0
    faces with face-decomposition tet quality < 1e-15      : 0
    faces with concavity > 80  degrees                     : 0
    faces with skewness > 4   (internal) or 20  (boundary) : 0
    faces with interpolation weights (0..1)  < 0.02        : 0
    faces with volume ratio of neighbour cells < 0.01      : 0
    faces with face twist < 0.02                           : 0
    faces on cells with determinant < 1e-05                : 0
Detected 0 illegal faces (concave, zero area or negative cell pyramid volume)
Checked initial mesh in = 0.26 s


Smoothing patch points ...
Smoothing iteration 0
Found 0 non-manifold point(s).

Scaling iteration 0
Moving mesh using displacement scaling : min:1  max:1
Checking faces in error :
    non-orthogonality > 65  degrees                        : 0
    faces with face pyramid volume < 1e-13                 : 0
    faces with face-decomposition tet quality < 1e-15      : 0
    faces with concavity > 80  degrees                     : 0
    faces with skewness > 4   (internal) or 20  (boundary) : 0
    faces with interpolation weights (0..1)  < 0.02        : 0
    faces with volume ratio of neighbour cells < 0.01      : 0
    faces with face twist < 0.02                           : 0
    faces on cells with determinant < 1e-05                : 0
Successfully moved mesh

Smoothing iteration 1
Found 0 non-manifold point(s).

Scaling iteration 0
Moving mesh using displacement scaling : min:1  max:1
Checking faces in error :
    non-orthogonality > 65  degrees                        : 0
    faces with face pyramid volume < 1e-13                 : 0
    faces with face-decomposition tet quality < 1e-15      : 0
    faces with concavity > 80  degrees                     : 0
    faces with skewness > 4   (internal) or 20  (boundary) : 0
    faces with interpolation weights (0..1)  < 0.02        : 0
    faces with volume ratio of neighbour cells < 0.01      : 0
    faces with face twist < 0.02                           : 0
    faces on cells with determinant < 1e-05                : 0
Successfully moved mesh

Smoothing iteration 2
Found 0 non-manifold point(s).

Scaling iteration 0
Moving mesh using displacement scaling : min:1  max:1
Checking faces in error :
    non-orthogonality > 65  degrees                        : 0
    faces with face pyramid volume < 1e-13                 : 0
    faces with face-decomposition tet quality < 1e-15      : 0
    faces with concavity > 80  degrees                     : 0
    faces with skewness > 4   (internal) or 20  (boundary) : 0
    faces with interpolation weights (0..1)  < 0.02        : 0
    faces with volume ratio of neighbour cells < 0.01      : 0
    faces with face twist < 0.02                           : 0
    faces on cells with determinant < 1e-05                : 0
Successfully moved mesh

Patch points smoothed in = 0.14 s



Morph iteration 0
-----------------
Calculating patchDisplacement as distance to nearest surface point ...
Wanted displacement : average:0.131028 min:1.14433e-05 max:1.16647
Calculated surface displacement in = 0.01 s


Detecting near surfaces ...
Overriding nearest with intersection of close gaps at 0 out of 20535 points.
Overriding displacement on features :
   implicit features    : false
   explicit features    : true
   multi-patch features : false

Detected 0 baffle edges out of 38715 edges.
Initially selected 1522 points out of 20535 for reverse attraction.
Selected 3732 points out of 20535 for reverse attraction.
Stringing feature edges : changed 24 points
Stringing feature edges : changed 6 points
Stringing feature edges : changed 5 points
Stringing feature edges : changed 4 points
Stringing feature edges : changed 7 points
Stringing feature edges : changed 3 points
Stringing feature edges : changed 1 points
Stringing feature edges : changed 1 points
Stringing feature edges : changed 3 points
Stringing feature edges : changed 0 points
Attraction:
     linear   : max:(0 0 1.16647) avg:(-0.000401489 1.67674e-07 -0.00185056)
     feature  : max:(1.00935 1.01715 0) avg:(5.67948e-05 -1.65017e-05 1.00424e-05)
Feature analysis : total master points:18323 attraction to :
    feature point   : 18
    feature edge    : 873
    nearest surface : 0
    rest            : 17432

--> FOAM Warning : Displacement (1.69992e-05 0.00202822 0.000808326) at mesh point 648 coord (-8.03078 1.26505 3.36625) points through the surrounding patch faces
Smoothing displacement ...
Iteration 0
Iteration 10
Iteration 20
Displacement smoothed in = 0.05 s


Moving mesh ...

Iteration 0
Moving mesh using displacement scaling : min:1  max:1
Checking faces in error :
    non-orthogonality > 65  degrees                        : 0
    faces with face pyramid volume < 1e-13                 : 0
    faces with face-decomposition tet quality < 1e-15      : 0
    faces with concavity > 80  degrees                     : 0
    faces with skewness > 4   (internal) or 20  (boundary) : 0
    faces with interpolation weights (0..1)  < 0.02        : 0
    faces with volume ratio of neighbour cells < 0.01      : 0
    faces with face twist < 0.02                           : 0
    faces on cells with determinant < 1e-05                : 0
Successfully moved mesh
Moved mesh in = 0.09 s



Morph iteration 1
-----------------
Calculating patchDisplacement as distance to nearest surface point ...
Wanted displacement : average:0.117291 min:1.42815e-05 max:1.05565
Calculated surface displacement in = 0.01 s


Detecting near surfaces ...
Overriding nearest with intersection of close gaps at 0 out of 20535 points.
Overriding displacement on features :
   implicit features    : false
   explicit features    : true
   multi-patch features : false

Detected 0 baffle edges out of 38715 edges.
Initially selected 1522 points out of 20535 for reverse attraction.
Selected 3732 points out of 20535 for reverse attraction.
Stringing feature edges : changed 25 points
Stringing feature edges : changed 6 points
Stringing feature edges : changed 6 points
Stringing feature edges : changed 4 points
Stringing feature edges : changed 7 points
Stringing feature edges : changed 3 points
Stringing feature edges : changed 1 points
Stringing feature edges : changed 1 points
Stringing feature edges : changed 3 points
Stringing feature edges : changed 0 points
Attraction:
     linear   : max:(0 0 1.05565) avg:(-0.000376215 3.10973e-06 -0.00167221)
     feature  : max:(0.908416 1.00698 0) avg:(5.27417e-05 -1.49979e-05 1.20743e-05)
Feature analysis : total master points:18323 attraction to :
    feature point   : 18
    feature edge    : 875
    nearest surface : 0
    rest            : 17430

--> FOAM Warning : Displacement (0.00017148 0.00400416 0.00142351) at mesh point 648 coord (-8.03076 1.26708 3.36706) points through the surrounding patch faces
Smoothing displacement ...
Iteration 0
Iteration 10
Iteration 20
Displacement smoothed in = 0.04 s


Moving mesh ...

Iteration 0
Moving mesh using displacement scaling : min:1  max:1
Checking faces in error :
    non-orthogonality > 65  degrees                        : 0
    faces with face pyramid volume < 1e-13                 : 0
    faces with face-decomposition tet quality < 1e-15      : 0
    faces with concavity > 80  degrees                     : 0
    faces with skewness > 4   (internal) or 20  (boundary) : 0
    faces with interpolation weights (0..1)  < 0.02        : 0
    faces with volume ratio of neighbour cells < 0.01      : 0
    faces with face twist < 0.02                           : 0
    faces on cells with determinant < 1e-05                : 0
Successfully moved mesh
Moved mesh in = 0.01 s



Morph iteration 2
-----------------
Calculating patchDisplacement as distance to nearest surface point ...
Wanted displacement : average:0.0922966 min:6.17893e-06 max:0.865634
Calculated surface displacement in = 0.01 s


Detecting near surfaces ...
Overriding nearest with intersection of close gaps at 0 out of 20535 points.
Overriding displacement on features :
   implicit features    : false
   explicit features    : true
   multi-patch features : false

Detected 0 baffle edges out of 38715 edges.
Initially selected 1602 points out of 20535 for reverse attraction.
Selected 3771 points out of 20535 for reverse attraction.
Stringing feature edges : changed 25 points
Stringing feature edges : changed 8 points
Stringing feature edges : changed 6 points
Stringing feature edges : changed 4 points
Stringing feature edges : changed 7 points
Stringing feature edges : changed 3 points
Stringing feature edges : changed 1 points
Stringing feature edges : changed 1 points
Stringing feature edges : changed 3 points
Stringing feature edges : changed 0 points
Attraction:
     linear   : max:(0 0 0.865634) avg:(-0.000325877 6.84988e-06 -0.00134934)
     feature  : max:(0.726733 0.966701 0) avg:(5.27808e-05 -2.89617e-05 -3.69854e-05)
Feature analysis : total master points:18323 attraction to :
    feature point   : 18
    feature edge    : 908
    nearest surface : 0
    rest            : 17397

--> FOAM Warning : Displacement (0.0004593 0.00544294 0.00167344) at mesh point 648 coord (-8.03059 1.27108 3.36848) points through the surrounding patch faces
Smoothing displacement ...
Iteration 0
Iteration 10
Iteration 20
Displacement smoothed in = 0.04 s


Moving mesh ...

Iteration 0
Moving mesh using displacement scaling : min:1  max:1
Checking faces in error :
    non-orthogonality > 65  degrees                        : 0
    faces with face pyramid volume < 1e-13                 : 0
    faces with face-decomposition tet quality < 1e-15      : 0
    faces with concavity > 80  degrees                     : 0
    faces with skewness > 4   (internal) or 20  (boundary) : 0
    faces with interpolation weights (0..1)  < 0.02        : 0
    faces with volume ratio of neighbour cells < 0.01      : 0
    faces with face twist < 0.02                           : 0
    faces on cells with determinant < 1e-05                : 0
Successfully moved mesh
Moved mesh in = 0.08 s



Morph iteration 3
-----------------
Calculating patchDisplacement as distance to nearest surface point ...
Wanted displacement : average:0.0620846 min:0.000270895 max:0.644897
Calculated surface displacement in = 0.01 s


Detecting near surfaces ...
Overriding nearest with intersection of close gaps at 0 out of 20535 points.
Overriding displacement on features :
   implicit features    : false
   explicit features    : true
   multi-patch features : false

Detected 0 baffle edges out of 38715 edges.
Initially selected 1599 points out of 20535 for reverse attraction.
Selected 3714 points out of 20535 for reverse attraction.
Stringing feature edges : changed 23 points
Stringing feature edges : changed 9 points
Stringing feature edges : changed 5 points
Stringing feature edges : changed 4 points
Stringing feature edges : changed 7 points
Stringing feature edges : changed 3 points
Stringing feature edges : changed 1 points
Stringing feature edges : changed 1 points
Stringing feature edges : changed 3 points
Stringing feature edges : changed 0 points
Attraction:
     linear   : max:(0 0 0.644897) avg:(-0.00025527 6.87682e-06 -0.000912265)
     feature  : max:(0.508713 -0.879698 0) avg:(5.89965e-05 1.84266e-05 -1.76072e-05)
Feature analysis : total master points:18323 attraction to :
    feature point   : 17
    feature edge    : 917
    nearest surface : 0
    rest            : 17389

--> FOAM Warning : Displacement (0.000865542 0.00606608 0.00153526) at mesh point 648 coord (-8.03013 1.27652 3.37015) points through the surrounding patch faces
Smoothing displacement ...
Iteration 0
Iteration 10
Iteration 20
Displacement smoothed in = 0.04 s


Moving mesh ...

Iteration 0
Moving mesh using displacement scaling : min:1  max:1
Checking faces in error :
    non-orthogonality > 65  degrees                        : 0
    faces with face pyramid volume < 1e-13                 : 0
    faces with face-decomposition tet quality < 1e-15      : 0
    faces with concavity > 80  degrees                     : 0
    faces with skewness > 4   (internal) or 20  (boundary) : 0
    faces with interpolation weights (0..1)  < 0.02        : 0
    faces with volume ratio of neighbour cells < 0.01      : 0
    faces with face twist < 0.02                           : 0
    faces on cells with determinant < 1e-05                : 0
Successfully moved mesh
Moved mesh in = 0.02 s



Morph iteration 4
-----------------
Calculating patchDisplacement as distance to nearest surface point ...
Wanted displacement : average:0.0358715 min:6.12244e-05 max:0.43853
Calculated surface displacement in = 0 s


Detecting near surfaces ...
Overriding nearest with intersection of close gaps at 0 out of 20535 points.
Overriding displacement on features :
   implicit features    : false
   explicit features    : true
   multi-patch features : false

Detected 0 baffle edges out of 38715 edges.
Initially selected 1596 points out of 20535 for reverse attraction.
Selected 3707 points out of 20535 for reverse attraction.
Stringing feature edges : changed 22 points
Stringing feature edges : changed 9 points
Stringing feature edges : changed 5 points
Stringing feature edges : changed 3 points
Stringing feature edges : changed 3 points
Stringing feature edges : changed 1 points
Stringing feature edges : changed 0 points
Attraction:
     linear   : max:(0 0 0.43853) avg:(-0.000178319 -1.7648e-06 -0.000524072)
     feature  : max:(0.305228 -0.738946 0) avg:(1.90513e-05 -2.91214e-06 -6.95526e-06)
Feature analysis : total master points:18323 attraction to :
    feature point   : 17
    feature edge    : 913
    nearest surface : 0
    rest            : 17393

--> FOAM Warning : Displacement (0.00130099 0.00582512 0.00117156) at mesh point 648 coord (-8.02926 1.28259 3.37169) points through the surrounding patch faces
Smoothing displacement ...
Iteration 0
Iteration 10
Iteration 20
Displacement smoothed in = 0.05 s


Moving mesh ...

Iteration 0
Moving mesh using displacement scaling : min:1  max:1
Checking faces in error :
    non-orthogonality > 65  degrees                        : 0
    faces with face pyramid volume < 1e-13                 : 0
    faces with face-decomposition tet quality < 1e-15      : 0
    faces with concavity > 80  degrees                     : 0
    faces with skewness > 4   (internal) or 20  (boundary) : 0
    faces with interpolation weights (0..1)  < 0.02        : 0
    faces with volume ratio of neighbour cells < 0.01      : 0
    faces with face twist < 0.02                           : 0
    faces on cells with determinant < 1e-05                : 0
Successfully moved mesh
Moved mesh in = 0.02 s



Morph iteration 5
-----------------
Calculating patchDisplacement as distance to nearest surface point ...
Wanted displacement : average:0.0177175 min:1.38743e-05 max:0.274081
Calculated surface displacement in = 0.01 s


Detecting near surfaces ...
Overriding nearest with intersection of close gaps at 2 out of 20535 points.
Overriding displacement on features :
   implicit features    : false
   explicit features    : true
   multi-patch features : false

Detected 0 baffle edges out of 38715 edges.
Initially selected 1594 points out of 20535 for reverse attraction.
Selected 3701 points out of 20535 for reverse attraction.
Stringing feature edges : changed 19 points
Stringing feature edges : changed 4 points
Stringing feature edges : changed 6 points
Stringing feature edges : changed 5 points
Stringing feature edges : changed 3 points
Stringing feature edges : changed 1 points
Stringing feature edges : changed 0 points
Attraction:
     linear   : max:(0 0 0.274081) avg:(-0.000100991 -5.95349e-07 -0.000251828)
     feature  : max:(0.448286 0.451756 0.137041) avg:(4.18292e-06 2.63026e-06 -9.48195e-07)
Feature analysis : total master points:18323 attraction to :
    feature point   : 14
    feature edge    : 914
    nearest surface : 0
    rest            : 17395

--> FOAM Warning : Displacement (0.00153055 0.00489042 0.000759056) at mesh point 648 coord (-8.02796 1.28841 3.37286) points through the surrounding patch faces
Smoothing displacement ...
Iteration 0
Iteration 10
Iteration 20
Displacement smoothed in = 0.04 s


Moving mesh ...

Iteration 0
Moving mesh using displacement scaling : min:1  max:1
Checking faces in error :
    non-orthogonality > 65  degrees                        : 0
    faces with face pyramid volume < 1e-13                 : 0
    faces with face-decomposition tet quality < 1e-15      : 4
    faces with concavity > 80  degrees                     : 0
    faces with skewness > 4   (internal) or 20  (boundary) : 0
    faces with interpolation weights (0..1)  < 0.02        : 0
    faces with volume ratio of neighbour cells < 0.01      : 0
    faces with face twist < 0.02                           : 0
    faces on cells with determinant < 1e-05                : 0

Iteration 1
Moving mesh using displacement scaling : min:0.75  max:1
Checking faces in error :
    non-orthogonality > 65  degrees                        : 0
    faces with face pyramid volume < 1e-13                 : 0
    faces with face-decomposition tet quality < 1e-15      : 0
    faces with concavity > 80  degrees                     : 0
    faces with skewness > 4   (internal) or 20  (boundary) : 0
    faces with interpolation weights (0..1)  < 0.02        : 0
    faces with volume ratio of neighbour cells < 0.01      : 0
    faces with face twist < 0.02                           : 0
    faces on cells with determinant < 1e-05                : 0
Successfully moved mesh
Moved mesh in = 0.05 s



Morph iteration 6
-----------------
Calculating patchDisplacement as distance to nearest surface point ...
Wanted displacement : average:0.00935671 min:9.72562e-06 max:0.158967
Calculated surface displacement in = 0 s


Detecting near surfaces ...
Overriding nearest with intersection of close gaps at 1 out of 20535 points.
Overriding displacement on features :
   implicit features    : false
   explicit features    : true
   multi-patch features : false

Detected 0 baffle edges out of 38715 edges.
Initially selected 1596 points out of 20535 for reverse attraction.
Selected 3701 points out of 20535 for reverse attraction.
Stringing feature edges : changed 13 points
Stringing feature edges : changed 7 points
Stringing feature edges : changed 4 points
Stringing feature edges : changed 3 points
Stringing feature edges : changed 4 points
Stringing feature edges : changed 1 points
Stringing feature edges : changed 1 points
Stringing feature edges : changed 1 points
Stringing feature edges : changed 0 points
Attraction:
     linear   : max:(0 0 0.158967) avg:(-3.61818e-05 9.04631e-07 -0.000111593)
     feature  : max:(0.367594 0.37044 0.0794836) avg:(1.18287e-05 -7.13985e-06 -4.32705e-06)
Feature analysis : total master points:18323 attraction to :
    feature point   : 13
    feature edge    : 917
    nearest surface : 0
    rest            : 17393

--> FOAM Warning : Displacement (0.000806503 0.000322957 0.00113827) at mesh point 564 coord (-8.02882 1.00451 3.59746) points through the surrounding patch faces
Smoothing displacement ...
Iteration 0
Iteration 10
Iteration 20
Displacement smoothed in = 0.04 s


Moving mesh ...

Iteration 0
Moving mesh using displacement scaling : min:1  max:1
Checking faces in error :
    non-orthogonality > 65  degrees                        : 0
    faces with face pyramid volume < 1e-13                 : 0
    faces with face-decomposition tet quality < 1e-15      : 4
    faces with concavity > 80  degrees                     : 0
    faces with skewness > 4   (internal) or 20  (boundary) : 0
    faces with interpolation weights (0..1)  < 0.02        : 0
    faces with volume ratio of neighbour cells < 0.01      : 0
    faces with face twist < 0.02                           : 0
    faces on cells with determinant < 1e-05                : 0

Iteration 1
Moving mesh using displacement scaling : min:0.75  max:1
Checking faces in error :
    non-orthogonality > 65  degrees                        : 0
    faces with face pyramid volume < 1e-13                 : 0
    faces with face-decomposition tet quality < 1e-15      : 3
    faces with concavity > 80  degrees                     : 0
    faces with skewness > 4   (internal) or 20  (boundary) : 0
    faces with interpolation weights (0..1)  < 0.02        : 0
    faces with volume ratio of neighbour cells < 0.01      : 0
    faces with face twist < 0.02                           : 1
    faces on cells with determinant < 1e-05                : 0

Iteration 2
Moving mesh using displacement scaling : min:0.5625  max:1
Checking faces in error :
    non-orthogonality > 65  degrees                        : 0
    faces with face pyramid volume < 1e-13                 : 0
    faces with face-decomposition tet quality < 1e-15      : 0
    faces with concavity > 80  degrees                     : 0
    faces with skewness > 4   (internal) or 20  (boundary) : 0
    faces with interpolation weights (0..1)  < 0.02        : 0
    faces with volume ratio of neighbour cells < 0.01      : 0
    faces with face twist < 0.02                           : 0
    faces on cells with determinant < 1e-05                : 0
Successfully moved mesh
Moved mesh in = 0.19 s



Morph iteration 7
-----------------
Calculating patchDisplacement as distance to nearest surface point ...
Wanted displacement : average:0.00654864 min:4.87161e-07 max:0.108955
Calculated surface displacement in = 0 s


Detecting near surfaces ...
Overriding nearest with intersection of close gaps at 3 out of 20535 points.
Overriding displacement on features :
   implicit features    : false
   explicit features    : true
   multi-patch features : false

Detected 0 baffle edges out of 38715 edges.
Initially selected 1589 points out of 20535 for reverse attraction.
Selected 3700 points out of 20535 for reverse attraction.
Stringing feature edges : changed 13 points
Stringing feature edges : changed 7 points
Stringing feature edges : changed 4 points
Stringing feature edges : changed 7 points
Stringing feature edges : changed 1 points
Stringing feature edges : changed 1 points
Stringing feature edges : changed 1 points
Stringing feature edges : changed 0 points
Attraction:
     linear   : max:(0 0.108955 2.22045e-16) avg:(5.35504e-06 -1.50248e-06 -5.03587e-05)
     feature  : max:(0.277534 0.279682 0.0433186) avg:(2.68242e-06 -7.06401e-06 -7.03076e-06)
Feature analysis : total master points:18323 attraction to :
    feature point   : 13
    feature edge    : 917
    nearest surface : 0
    rest            : 17393

--> FOAM Warning : Displacement (0.000823275 0.000209017 0.000866465) at mesh point 564 coord (-8.02801 1.00484 3.5986) points through the surrounding patch faces
Smoothing displacement ...
Iteration 0
Iteration 10
Iteration 20
Displacement smoothed in = 0.04 s


Moving mesh ...

Iteration 0
Moving mesh using displacement scaling : min:1  max:1
Checking faces in error :
    non-orthogonality > 65  degrees                        : 0
    faces with face pyramid volume < 1e-13                 : 0
    faces with face-decomposition tet quality < 1e-15      : 4
    faces with concavity > 80  degrees                     : 0
    faces with skewness > 4   (internal) or 20  (boundary) : 0
    faces with interpolation weights (0..1)  < 0.02        : 0
    faces with volume ratio of neighbour cells < 0.01      : 0
    faces with face twist < 0.02                           : 0
    faces on cells with determinant < 1e-05                : 0

Iteration 1
Moving mesh using displacement scaling : min:0.75  max:1
Checking faces in error :
    non-orthogonality > 65  degrees                        : 0
    faces with face pyramid volume < 1e-13                 : 0
    faces with face-decomposition tet quality < 1e-15      : 4
    faces with concavity > 80  degrees                     : 0
    faces with skewness > 4   (internal) or 20  (boundary) : 0
    faces with interpolation weights (0..1)  < 0.02        : 0
    faces with volume ratio of neighbour cells < 0.01      : 0
    faces with face twist < 0.02                           : 0
    faces on cells with determinant < 1e-05                : 0

Iteration 2
Moving mesh using displacement scaling : min:0.5625  max:1
Checking faces in error :
    non-orthogonality > 65  degrees                        : 0
    faces with face pyramid volume < 1e-13                 : 0
    faces with face-decomposition tet quality < 1e-15      : 4
    faces with concavity > 80  degrees                     : 0
    faces with skewness > 4   (internal) or 20  (boundary) : 0
    faces with interpolation weights (0..1)  < 0.02        : 0
    faces with volume ratio of neighbour cells < 0.01      : 0
    faces with face twist < 0.02                           : 0
    faces on cells with determinant < 1e-05                : 0

Iteration 3
Moving mesh using displacement scaling : min:0.421875  max:1
Checking faces in error :
    non-orthogonality > 65  degrees                        : 0
    faces with face pyramid volume < 1e-13                 : 0
    faces with face-decomposition tet quality < 1e-15      : 4
    faces with concavity > 80  degrees                     : 0
    faces with skewness > 4   (internal) or 20  (boundary) : 0
    faces with interpolation weights (0..1)  < 0.02        : 0
    faces with volume ratio of neighbour cells < 0.01      : 0
    faces with face twist < 0.02                           : 0
    faces on cells with determinant < 1e-05                : 0

Iteration 4
Moving mesh using displacement scaling : min:0.316406  max:1
Checking faces in error :
    non-orthogonality > 65  degrees                        : 0
    faces with face pyramid volume < 1e-13                 : 0
    faces with face-decomposition tet quality < 1e-15      : 4
    faces with concavity > 80  degrees                     : 0
    faces with skewness > 4   (internal) or 20  (boundary) : 0
    faces with interpolation weights (0..1)  < 0.02        : 0
    faces with volume ratio of neighbour cells < 0.01      : 0
    faces with face twist < 0.02                           : 0
    faces on cells with determinant < 1e-05                : 0

Iteration 5
Displacement scaling for error reduction set to 0.
Moving mesh using displacement scaling : min:0.237305  max:1
Checking faces in error :
    non-orthogonality > 65  degrees                        : 0
    faces with face pyramid volume < 1e-13                 : 0
    faces with face-decomposition tet quality < 1e-15      : 4
    faces with concavity > 80  degrees                     : 0
    faces with skewness > 4   (internal) or 20  (boundary) : 0
    faces with interpolation weights (0..1)  < 0.02        : 0
    faces with volume ratio of neighbour cells < 0.01      : 0
    faces with face twist < 0.02                           : 0
    faces on cells with determinant < 1e-05                : 0

Iteration 6
Moving mesh using displacement scaling : min:0  max:1
Checking faces in error :
    non-orthogonality > 65  degrees                        : 0
    faces with face pyramid volume < 1e-13                 : 0
    faces with face-decomposition tet quality < 1e-15      : 0
    faces with concavity > 80  degrees                     : 0
    faces with skewness > 4   (internal) or 20  (boundary) : 0
    faces with interpolation weights (0..1)  < 0.02        : 0
    faces with volume ratio of neighbour cells < 0.01      : 0
    faces with face twist < 0.02                           : 0
    faces on cells with determinant < 1e-05                : 0
Successfully moved mesh
Moved mesh in = 0.88 s



Morph iteration 8
-----------------
Calculating patchDisplacement as distance to nearest surface point ...
Wanted displacement : average:0.00506142 min:7.15961e-08 max:0.0996857
Calculated surface displacement in = 0.01 s


Detecting near surfaces ...
Overriding nearest with intersection of close gaps at 7 out of 20535 points.
Overriding displacement on features :
   implicit features    : false
   explicit features    : true
   multi-patch features : false

Detected 0 baffle edges out of 38715 edges.
Initially selected 1588 points out of 20535 for reverse attraction.
Selected 3701 points out of 20535 for reverse attraction.
Stringing feature edges : changed 13 points
Stringing feature edges : changed 7 points
Stringing feature edges : changed 4 points
Stringing feature edges : changed 7 points
Stringing feature edges : changed 1 points
Stringing feature edges : changed 1 points
Stringing feature edges : changed 1 points
Stringing feature edges : changed 0 points
Attraction:
     linear   : max:(0 -0.0996857 2.22045e-16) avg:(1.79788e-05 -1.8957e-06 -2.49005e-05)
     feature  : max:(0.188723 0.190184 0.0225257) avg:(2.30395e-06 -6.43915e-06 -8.01742e-06)
Feature analysis : total master points:18323 attraction to :
    feature point   : 13
    feature edge    : 917
    nearest surface : 0
    rest            : 17393

--> FOAM Warning : Displacement (0.000922376 0.000206151 0.000405857) at mesh point 564 coord (-8.0272 1.00504 3.59945) points through the surrounding patch faces
Smoothing displacement ...
Iteration 0
Iteration 10
Iteration 20
Displacement smoothed in = 0.03 s


Moving mesh ...

Iteration 0
Moving mesh using displacement scaling : min:1  max:1
Checking faces in error :
    non-orthogonality > 65  degrees                        : 0
    faces with face pyramid volume < 1e-13                 : 0
    faces with face-decomposition tet quality < 1e-15      : 9
    faces with concavity > 80  degrees                     : 0
    faces with skewness > 4   (internal) or 20  (boundary) : 0
    faces with interpolation weights (0..1)  < 0.02        : 0
    faces with volume ratio of neighbour cells < 0.01      : 0
    faces with face twist < 0.02                           : 0
    faces on cells with determinant < 1e-05                : 0

Iteration 1
Moving mesh using displacement scaling : min:0.75  max:1
Checking faces in error :
    non-orthogonality > 65  degrees                        : 0
    faces with face pyramid volume < 1e-13                 : 0
    faces with face-decomposition tet quality < 1e-15      : 7
    faces with concavity > 80  degrees                     : 0
    faces with skewness > 4   (internal) or 20  (boundary) : 0
    faces with interpolation weights (0..1)  < 0.02        : 0
    faces with volume ratio of neighbour cells < 0.01      : 0
    faces with face twist < 0.02                           : 0
    faces on cells with determinant < 1e-05                : 0

Iteration 2
Moving mesh using displacement scaling : min:0.5625  max:1
Checking faces in error :
    non-orthogonality > 65  degrees                        : 0
    faces with face pyramid volume < 1e-13                 : 0
    faces with face-decomposition tet quality < 1e-15      : 7
    faces with concavity > 80  degrees                     : 0
    faces with skewness > 4   (internal) or 20  (boundary) : 0
    faces with interpolation weights (0..1)  < 0.02        : 0
    faces with volume ratio of neighbour cells < 0.01      : 0
    faces with face twist < 0.02                           : 0
    faces on cells with determinant < 1e-05                : 0

Iteration 3
Moving mesh using displacement scaling : min:0.421875  max:1
Checking faces in error :
    non-orthogonality > 65  degrees                        : 0
    faces with face pyramid volume < 1e-13                 : 0
    faces with face-decomposition tet quality < 1e-15      : 4
    faces with concavity > 80  degrees                     : 0
    faces with skewness > 4   (internal) or 20  (boundary) : 0
    faces with interpolation weights (0..1)  < 0.02        : 0
    faces with volume ratio of neighbour cells < 0.01      : 0
    faces with face twist < 0.02                           : 0
    faces on cells with determinant < 1e-05                : 0

Iteration 4
Moving mesh using displacement scaling : min:0.316406  max:1
Checking faces in error :
    non-orthogonality > 65  degrees                        : 0
    faces with face pyramid volume < 1e-13                 : 0
    faces with face-decomposition tet quality < 1e-15      : 4
    faces with concavity > 80  degrees                     : 0
    faces with skewness > 4   (internal) or 20  (boundary) : 0
    faces with interpolation weights (0..1)  < 0.02        : 0
    faces with volume ratio of neighbour cells < 0.01      : 0
    faces with face twist < 0.02                           : 0
[...]
    faces with face-decomposition tet quality < 1e-15      : 0
    faces with concavity > 80  degrees                     : 0
    faces with skewness > 4   (internal) or 20  (boundary) : 0
    faces with interpolation weights (0..1)  < 0.02        : 0
    faces with volume ratio of neighbour cells < 0.01      : 0
    faces with face twist < 0.02                           : 0
    faces on cells with determinant < 1e-05                : 0

Merging all points on surface that
- are used by only two boundary faces and
- make an angle with a cosine of more than 0.965926.

Removing 206 straight edge points ...

Edge intersection testing:
    Number of edges             : 194919
    Number of edges to retest   : 835
    Number of intersected edges : 18026

Undo iteration 0
----------------
Checking faces in error :
    non-orthogonality > 65  degrees                        : 0
    faces with face pyramid volume < 1e-13                 : 0
    faces with face-decomposition tet quality < 1e-15      : 0
    faces with concavity > 80  degrees                     : 0
    faces with skewness > 4   (internal) or 20  (boundary) : 0
    faces with interpolation weights (0..1)  < 0.02        : 0
    faces with volume ratio of neighbour cells < 0.01      : 0
    faces with face twist < 0.02                           : 0
    faces on cells with determinant < 1e-05                : 0
Snapped mesh : cells:59500  faces:194919  points:76085
Cells per refinement level:
    0	23563
    1	1800
    2	2921
    3	7412
    4	23804
Writing mesh to time constant
Wrote mesh in = 0.23 s.
Mesh snapped in = 4 s.

Shrinking and layer addition phase
----------------------------------

Using mesh parameters 
{
    maxNonOrtho     65;
    maxBoundarySkewness 20;
    maxInternalSkewness 4;
    maxConcave      80;
    minVol          1e-13;
    minTetQuality   1e-15;
    minArea         -1;
    minTwist        0.02;
    minDeterminant  1e-05;
    minFaceWeight   0.02;
    minVolRatio     0.01;
    minTriangleTwist -1;
    nSmoothScale    4;
    errorReduction  0.75;
}



Merging all faces of a cell
---------------------------
    - which are on the same patch
    - which make an angle < 60 degrees
      (cos:0.5)
    - as long as the resulting face doesn't become concave by more than 90 degrees
      (0=straight, 180=fully concave)

Merging 79 sets of faces.

Edge intersection testing:
    Number of edges             : 194831
    Number of edges to retest   : 322
    Number of intersected edges : 17938

Undo iteration 0
----------------
Checking faces in error :
    non-orthogonality > 65  degrees                        : 0
    faces with face pyramid volume < 1e-13                 : 0
    faces with face-decomposition tet quality < 1e-15      : 0
    faces with concavity > 80  degrees                     : 0
    faces with skewness > 4   (internal) or 20  (boundary) : 0
    faces with interpolation weights (0..1)  < 0.02        : 0
    faces with volume ratio of neighbour cells < 0.01      : 0
    faces with face twist < 0.02                           : 0
    faces on cells with determinant < 1e-05                : 0

Merging all points on surface that
- are used by only two boundary faces and
- make an angle with a cosine of more than 0.5.

Removing 70 straight edge points ...

Edge intersection testing:
    Number of edges             : 194831
    Number of edges to retest   : 292
    Number of intersected edges : 17938

Undo iteration 0
----------------
Checking faces in error :
    non-orthogonality > 65  degrees                        : 0
    faces with face pyramid volume < 1e-13                 : 0
    faces with face-decomposition tet quality < 1e-15      : 0
    faces with concavity > 80  degrees                     : 0
    faces with skewness > 4   (internal) or 20  (boundary) : 0
    faces with interpolation weights (0..1)  < 0.02        : 0
    faces with volume ratio of neighbour cells < 0.01      : 0
    faces with face twist < 0.02                           : 0
    faces on cells with determinant < 1e-05                : 0

Checking mesh manifoldness ...
Outside of mesh is multiply connected across edges or points.
This is not a fatal error but might cause some unexpected behaviour.


Checking initial mesh ...
Checking faces in error :
    non-orthogonality > 65  degrees                        : 0
    faces with face pyramid volume < 1e-13                 : 0
    faces with face-decomposition tet quality < 1e-15      : 0
    faces with concavity > 80  degrees                     : 0
    faces with skewness > 4   (internal) or 20  (boundary) : 0
    faces with interpolation weights (0..1)  < 0.02        : 0
    faces with volume ratio of neighbour cells < 0.01      : 0
    faces with face twist < 0.02                           : 0
    faces on cells with determinant < 1e-05                : 0
Detected 0 illegal faces (concave, zero area or negative cell pyramid volume)

Adding in total 0 inter-processor patches to handle extrusion of non-manifold processor boundaries.

Handling points with inconsistent layer specification ...

Handling non-manifold points ...

Checking patch manifoldness ...
Outside of local patch is multiply connected across edges or points at 0 points.
Set displacement to zero for all 0 non-manifold points

Handling feature edges ...

Handling cells with warped patch faces ...
Set displacement to zero on 2 warped faces since layer would be > 0.5 of the size of the bounding box.

patch        faces    layers avg thickness[m]
                             near-wall overall
-----        -----    ------ --------- -------
gtsModel     10624    4      0.0273    0.126   
bottomNoSlip 1492     3      0.144     0.475   
bottomSlip   1154     3      0.48      1.59    

Selecting externalDisplacementMeshMover displacementMedialAxis
displacementMedialAxis : Calculating distance to Medial Axis ...
displacementMedialAxis : Smoothing normals ...
    Iteration 0   residual 0.0197713
displacementMedialAxis : Inserting points on patch frontAndBack if angle to nearest layer patch > 30 degrees.
displacementMedialAxis : Inserting points on patch inletBB if angle to nearest layer patch > 30 degrees.
displacementMedialAxis : Inserting points on patch outletBB if angle to nearest layer patch > 30 degrees.
displacementMedialAxis : Inserting points on patch lowerWallBB if angle to nearest layer patch > 30 degrees.
displacementMedialAxis : Inserting points on patch upperWallBB if angle to nearest layer patch > 30 degrees.
displacementMedialAxis : Inserting points on patch inlet if angle to nearest layer patch > 30 degrees.
displacementMedialAxis : Inserting points on patch outlet if angle to nearest layer patch > 30 degrees.
displacementMedialAxis : Inserting points on patch lateral if angle to nearest layer patch > 30 degrees.
displacementMedialAxis : Inserting points on patch top if angle to nearest layer patch > 30 degrees.
displacementMedialAxis : Smoothing normals in interior ...
    Iteration 0   residual 0.0589886

Layer addition iteration 0
--------------------------

Determining displacement for added points according to pointNormal ...
Detected 0 points with point normal pointing through faces.
Reset displacement at 0 points to average of surrounding points.

displacementMedialAxis : Smoothing using Medial Axis ...
displacementMedialAxis : Reducing layer thickness at 3200 nodes where thickness to medial axis distance is large 
displacementMedialAxis : Removing isolated regions ...
displacementMedialAxis : Number of isolated points extrusion stopped : 6
displacementMedialAxis : Smoothing field ...
    Iteration 0   residual 0.00107514
displacementMedialAxis : Moving mesh ...
displacementMedialAxis : Iteration 0
Moving mesh using displacement scaling : min:1  max:1
Checking faces in error :
    non-orthogonality > 65  degrees                        : 0
    faces with face pyramid volume < 1e-13                 : 0
    faces with face-decomposition tet quality < 1e-15      : 6
    faces with concavity > 80  degrees                     : 0
    faces with skewness > 4   (internal) or 20  (boundary) : 0
    faces with interpolation weights (0..1)  < 0.02        : 0
    faces with volume ratio of neighbour cells < 0.01      : 0
    faces with face twist < 0.02                           : 0
    faces on cells with determinant < 1e-05                : 0
displacementMedialAxis : Iteration 1
Moving mesh using displacement scaling : min:0.75  max:1
Checking faces in error :
    non-orthogonality > 65  degrees                        : 0
    faces with face pyramid volume < 1e-13                 : 0
    faces with face-decomposition tet quality < 1e-15      : 4
    faces with concavity > 80  degrees                     : 0
    faces with skewness > 4   (internal) or 20  (boundary) : 0
    faces with interpolation weights (0..1)  < 0.02        : 0
    faces with volume ratio of neighbour cells < 0.01      : 0
    faces with face twist < 0.02                           : 0
    faces on cells with determinant < 1e-05                : 0
displacementMedialAxis : Iteration 2
Moving mesh using displacement scaling : min:0.5625  max:1
Checking faces in error :
    non-orthogonality > 65  degrees                        : 0
    faces with face pyramid volume < 1e-13                 : 0
    faces with face-decomposition tet quality < 1e-15      : 4
    faces with concavity > 80  degrees                     : 0
    faces with skewness > 4   (internal) or 20  (boundary) : 0
    faces with interpolation weights (0..1)  < 0.02        : 0
    faces with volume ratio of neighbour cells < 0.01      : 0
    faces with face twist < 0.02                           : 0
    faces on cells with determinant < 1e-05                : 0
displacementMedialAxis : Iteration 3
displacementMedialAxis : Displacement scaling for error reduction set to 0.
Moving mesh using displacement scaling : min:0.421875  max:1
Checking faces in error :
    non-orthogonality > 65  degrees                        : 0
    faces with face pyramid volume < 1e-13                 : 0
    faces with face-decomposition tet quality < 1e-15      : 4
    faces with concavity > 80  degrees                     : 0
    faces with skewness > 4   (internal) or 20  (boundary) : 0
    faces with interpolation weights (0..1)  < 0.02        : 0
    faces with volume ratio of neighbour cells < 0.01      : 0
    faces with face twist < 0.02                           : 0
    faces on cells with determinant < 1e-05                : 0
displacementMedialAxis : Iteration 4
Moving mesh using displacement scaling : min:0  max:1
Checking faces in error :
    non-orthogonality > 65  degrees                        : 1
    faces with face pyramid volume < 1e-13                 : 0
    faces with face-decomposition tet quality < 1e-15      : 1
    faces with concavity > 80  degrees                     : 0
    faces with skewness > 4   (internal) or 20  (boundary) : 0
    faces with interpolation weights (0..1)  < 0.02        : 0
    faces with volume ratio of neighbour cells < 0.01      : 0
    faces with face twist < 0.02                           : 0
    faces on cells with determinant < 1e-05                : 0
displacementMedialAxis : Iteration 5
Moving mesh using displacement scaling : min:0  max:1
Checking faces in error :
    non-orthogonality > 65  degrees                        : 0
    faces with face pyramid volume < 1e-13                 : 0
    faces with face-decomposition tet quality < 1e-15      : 1
    faces with concavity > 80  degrees                     : 0
    faces with skewness > 4   (internal) or 20  (boundary) : 0
    faces with interpolation weights (0..1)  < 0.02        : 0
    faces with volume ratio of neighbour cells < 0.01      : 0
    faces with face twist < 0.02                           : 0
    faces on cells with determinant < 1e-05                : 0
displacementMedialAxis : Finished moving mesh ...
truncateDisplacement : Unextruded 0 faces due to non-consecutive vertices being extruded.
truncateDisplacement : Unextruded 0 faces due to stringed edges with inconsistent extrusion.

Setting up information for layer truncation ...

Checking mesh with layer ...
Checking faces in error :
    non-orthogonality > 65  degrees                        : 4
    faces with face pyramid volume < 1e-13                 : 0
    faces with face-decomposition tet quality < 1e-15      : 44
    faces with concavity > 80  degrees                     : 0
    faces with skewness > 4   (internal) or 20  (boundary) : 0
    faces with interpolation weights (0..1)  < 0.02        : 0
    faces with volume ratio of neighbour cells < 0.01      : 0
    faces with face twist < 0.02                           : 0
    faces on cells with determinant < 1e-05                : 0
Detected 48 illegal faces (concave, zero area or negative cell pyramid volume)
Extruding 13236 out of 13270 faces (99.7438%). Removed extrusion at 20 faces.
Added 50034 out of 50434 cells (99.2069%).


Layer addition iteration 1
--------------------------

Determining displacement for added points according to pointNormal ...
Detected 0 points with point normal pointing through faces.
Reset displacement at 0 points to average of surrounding points.

displacementMedialAxis : Smoothing using Medial Axis ...
displacementMedialAxis : Reducing layer thickness at 3194 nodes where thickness to medial axis distance is large 
displacementMedialAxis : Removing isolated regions ...
displacementMedialAxis : Number of isolated points extrusion stopped : 26
displacementMedialAxis : Smoothing field ...
    Iteration 0   residual 0.00122521
displacementMedialAxis : Moving mesh ...
displacementMedialAxis : Iteration 0
Moving mesh using displacement scaling : min:1  max:1
Checking faces in error :
    non-orthogonality > 65  degrees                        : 0
    faces with face pyramid volume < 1e-13                 : 0
    faces with face-decomposition tet quality < 1e-15      : 0
    faces with concavity > 80  degrees                     : 0
    faces with skewness > 4   (internal) or 20  (boundary) : 0
    faces with interpolation weights (0..1)  < 0.02        : 0
    faces with volume ratio of neighbour cells < 0.01      : 0
    faces with face twist < 0.02                           : 0
    faces on cells with determinant < 1e-05                : 0
displacementMedialAxis : Successfully moved mesh
displacementMedialAxis : Finished moving mesh ...
truncateDisplacement : Unextruded 0 faces due to non-consecutive vertices being extruded.
truncateDisplacement : Unextruded 0 faces due to stringed edges with inconsistent extrusion.

Setting up information for layer truncation ...

Checking mesh with layer ...
Checking faces in error :
    non-orthogonality > 65  degrees                        : 0
    faces with face pyramid volume < 1e-13                 : 0
    faces with face-decomposition tet quality < 1e-15      : 1
    faces with concavity > 80  degrees                     : 0
    faces with skewness > 4   (internal) or 20  (boundary) : 0
    faces with interpolation weights (0..1)  < 0.02        : 0
    faces with volume ratio of neighbour cells < 0.01      : 0
    faces with face twist < 0.02                           : 0
    faces on cells with determinant < 1e-05                : 0
Detected 1 illegal faces (concave, zero area or negative cell pyramid volume)
Extruding 13227 out of 13270 faces (99.676%). Removed extrusion at 1 faces.
Added 48956 out of 50434 cells (97.0694%).


Layer addition iteration 2
--------------------------

Determining displacement for added points according to pointNormal ...
Detected 0 points with point normal pointing through faces.
Reset displacement at 0 points to average of surrounding points.

displacementMedialAxis : Smoothing using Medial Axis ...
displacementMedialAxis : Reducing layer thickness at 3186 nodes where thickness to medial axis distance is large 
displacementMedialAxis : Removing isolated regions ...
displacementMedialAxis : Number of isolated points extrusion stopped : 8
displacementMedialAxis : Smoothing field ...
    Iteration 0   residual 0.00123742
displacementMedialAxis : Moving mesh ...
displacementMedialAxis : Iteration 0
Moving mesh using displacement scaling : min:1  max:1
Checking faces in error :
    non-orthogonality > 65  degrees                        : 0
    faces with face pyramid volume < 1e-13                 : 0
    faces with face-decomposition tet quality < 1e-15      : 0
    faces with concavity > 80  degrees                     : 0
    faces with skewness > 4   (internal) or 20  (boundary) : 0
    faces with interpolation weights (0..1)  < 0.02        : 0
    faces with volume ratio of neighbour cells < 0.01      : 0
    faces with face twist < 0.02                           : 0
    faces on cells with determinant < 1e-05                : 0
displacementMedialAxis : Successfully moved mesh
displacementMedialAxis : Finished moving mesh ...
truncateDisplacement : Unextruded 0 faces due to non-consecutive vertices being extruded.
truncateDisplacement : Unextruded 0 faces due to stringed edges with inconsistent extrusion.

Setting up information for layer truncation ...

Checking mesh with layer ...
Checking faces in error :
    non-orthogonality > 65  degrees                        : 0
    faces with face pyramid volume < 1e-13                 : 0
    faces with face-decomposition tet quality < 1e-15      : 0
    faces with concavity > 80  degrees                     : 0
    faces with skewness > 4   (internal) or 20  (boundary) : 0
    faces with interpolation weights (0..1)  < 0.02        : 0
    faces with volume ratio of neighbour cells < 0.01      : 0
    faces with face twist < 0.02                           : 0
    faces on cells with determinant < 1e-05                : 0
Detected 0 illegal faces (concave, zero area or negative cell pyramid volume)
Extruding 13227 out of 13270 faces (99.676%). Removed extrusion at 0 faces.
Added 48856 out of 50434 cells (96.8712%).
Edge intersection testing:
    Number of edges             : 342294
    Number of edges to retest   : 0
    Number of intersected edges : 67370

Doing final balancing
---------------------

Writing 48856 added cells to cellSet addedCells
Writing 35597 faces inside added layer to faceSet layerFaces

Writing fields with layer information:
    nSurfaceLayers    : actual number of layers
    thickness         : overall layer thickness
    thicknessFraction : overall layer thickness (fraction of desired thickness)


patch        faces    layers   overall thickness
                               [m]       [%]
-----        -----    ------   ---       ---
gtsModel     10624    3.85     0.109     86.1    
bottomNoSlip 1492     3        0.338     62.2    
bottomSlip   1154     3        1.58      99.7    


Removing zero-sized patches:
    frontAndBack type patch at position 0
    inletBB type patch at position 1
    outletBB type patch at position 2
    lowerWallBB type wall at position 3
    upperWallBB type patch at position 4

Layer mesh : cells:108356  faces:342294  points:125739
Cells per refinement level:
    0	27499
    1	2610
    2	3425
    3	10100
    4	64722
Writing mesh to time constant
Wrote mesh in = 2.32 s.
Layers added in = 2.32 s.
Checking final mesh ...
Checking faces in error :
    non-orthogonality > 65  degrees                        : 0
    faces with face pyramid volume < 1e-13                 : 0
    faces with face-decomposition tet quality < 1e-15      : 0
    faces with concavity > 80  degrees                     : 0
    faces with skewness > 4   (internal) or 20  (boundary) : 0
    faces with interpolation weights (0..1)  < 0.02        : 0
    faces with volume ratio of neighbour cells < 0.01      : 0
    faces with face twist < 0.02                           : 0
    faces on cells with determinant < 1e-05                : 0
Finished meshing without any errors
Finished meshing in = 23.66 s.
End

Finalising parallel run
