/*---------------------------------------------------------------------------*\
| =========                 |                                                 |
| \\      /  F ield         | OpenFOAM: The Open Source CFD Toolbox           |
|  \\    /   O peration     | Version:  v1812                                 |
|   \\  /    A nd           | Web:      www.OpenFOAM.com                      |
|    \\/     M anipulation  |                                                 |
\*---------------------------------------------------------------------------*/
Build  : v1812 OPENFOAM=1812
Arch   : "LSB;label=32;scalar=64"
Exec   : checkMesh -parallel -decomposeParDict system/decomposeParDict.60
Date   : Mar 28 2023
Time   : 15:00:51
Host   : compute-0-0.local
PID    : 180312
I/O    : uncollated
Case   : /share/storage/finzeo/Mallas/test/GTS_ofcom11
nProcs : 60
Hosts  :
(
    (compute-0-0.local 20)
    (compute-0-1.local 20)
    (compute-0-7.local 20)
)
Pstream initialized with:
    floatTransfer      : 0
    nProcsSimpleSum    : 0
    commsType          : nonBlocking
    polling iterations : 0
trapFpe: Floating point exception trapping enabled (FOAM_SIGFPE).
fileModificationChecking : Monitoring run-time modified files using timeStampMaster (fileModificationSkew 10)
allowSystemOperations : Allowing user-supplied system call operations

// * * * * * * * * * * * * * * * * * * * * * * * * * * * * * * * * * * * * * //
Create time

Create mesh for time = 1

Time = 1

Mesh stats
    points:           17327100
    faces:            46715243
    internal faces:   43141416
    cells:            14715214
    faces per cell:   6.10638
    boundary patches: 12
    point zones:      0
    face zones:       0
    cell zones:       0

Overall number of cells of each type:
    hexahedra:     14174908
    prisms:        0
    wedges:        0
    pyramids:      0
    tet wedges:    0
    tetrahedra:    0
    polyhedra:     540306
    Breakdown of polyhedra by number of faces:
        faces   number of cells
            6   86627
            8   4129
            9   382761
           10   39
           11   15
           12   64035
           15   2669
           18   31

Checking topology...
    Boundary definition OK.
    Cell to face addressing OK.
    Point usage OK.
    Upper triangular ordering OK.
    Face vertices OK.
    Number of regions: 1 (OK).

Checking basic patch addressing...
                   Patch    Faces   Points
                   inlet     1260     1518
                  outlet     6750     7428
                    left     4680     5313
                   right     4680     5313
                   floor    91736    96379
                     top     6552     7406
                gtsModel   979343   995402

Checking basic faceZone addressing...
    No faceZones found.

Checking basic cellZone addressing...
    No cellZones found.

Checking geometry...
    Overall domain bounding box (-7.33423 -1.524 -0.0762) (4.40057 1.524 2.0574)
    Mesh has 3 geometric (non-empty/wedge) directions (1 1 1)
    Mesh has 3 solution (non-empty) directions (1 1 1)
    Boundary openness (-1.18082e-15 7.02657e-15 -2.29802e-14) OK.
    Max cell openness = 4.4164e-16 OK.
    Max aspect ratio = 1.05769 OK.
    Minimum face area = 1.26008e-06. Maximum face area = 0.00545905.  Face area magnitudes OK.
    Min volume = 1.48105e-09. Max volume = 0.000388247.  Total volume = 75.9598.  Cell volumes OK.
    Mesh non-orthogonality Max: 26.0999 average: 5.50362
    Non-orthogonality check OK.
    Face pyramids OK.
    Max skewness = 1 OK.
    Coupled point location match (average 0) OK.

Mesh OK.

Time = 2

Mesh stats
    points:           17297052
    faces:            46683745
    internal faces:   43141416
    cells:            14715214
    faces per cell:   6.10424
    boundary patches: 12
    point zones:      0
    face zones:       0
    cell zones:       0

Overall number of cells of each type:
    hexahedra:     14149411
    prisms:        22483
    wedges:        0
    pyramids:      0
    tet wedges:    159
    tetrahedra:    0
    polyhedra:     543161
    Breakdown of polyhedra by number of faces:
        faces   number of cells
            4   1428
            5   1439
            6   86653
            7   4162
            8   51
            9   382679
           10   1
           11   13
           12   64035
           15   2669
           18   31

Checking topology...
    Boundary definition OK.
    Cell to face addressing OK.
    Point usage OK.
    Upper triangular ordering OK.
    Face vertices OK.
    Number of regions: 1 (OK).

Checking basic patch addressing...
                   Patch    Faces   Points
                   inlet     1260     1518
                  outlet     6750     7428
                    left     4680     5313
                   right     4680     5313
                   floor    91736    96235
                     top     6552     7406
                gtsModel   947845   965354

Checking basic faceZone addressing...
    No faceZones found.

Checking basic cellZone addressing...
    No cellZones found.

Checking geometry...
    Overall domain bounding box (-7.33423 -1.524 -0.0762) (4.40057 1.524 2.0574)
    Mesh has 3 geometric (non-empty/wedge) directions (1 1 1)
    Mesh has 3 solution (non-empty) directions (1 1 1)
    Boundary openness (4.3362e-17 2.83106e-16 8.71805e-16) OK.
    Max cell openness = 4.34383e-16 OK.
    Max aspect ratio = 4.56346 OK.
    Minimum face area = 1.31345e-07. Maximum face area = 0.00545912.  Face area magnitudes OK.
    Min volume = 1.91918e-10. Max volume = 0.000388262.  Total volume = 75.9583.  Cell volumes OK.
    Mesh non-orthogonality Max: 47.8611 average: 5.56825
    Non-orthogonality check OK.
    Face pyramids OK.
    Max skewness = 3.91243 OK.
    Coupled point location match (average 0) OK.

Mesh OK.

--> FOAM Warning : 
    From function virtual Foam::polyMesh::readUpdateState Foam::polyMesh::readUpdate()
    in file meshes/polyMesh/polyMeshIO.C at line 209
    Number of patches has changed.  This may have unexpected consequences.  Proceed with care.
Time = 3

Mesh stats
    points:           27961509
    faces:            77863271
    internal faces:   73667803
    cells:            24974232
    faces per cell:   6.0675
    boundary patches: 11
    point zones:      0
    face zones:       0
    cell zones:       0

Overall number of cells of each type:
    hexahedra:     24266837
    prisms:        22475
    wedges:        2
    pyramids:      0
    tet wedges:    231
    tetrahedra:    0
    polyhedra:     684687
    Breakdown of polyhedra by number of faces:
        faces   number of cells
            4   1853
            5   1375
            6   88951
            7   130524
            8   11435
            9   383626
           10   123
           11   62
           12   64035
           13   2
           15   2670
           18   31

Checking topology...
    Boundary definition OK.
    Cell to face addressing OK.
    Point usage OK.
    Upper triangular ordering OK.
    Face vertices OK.
    Number of regions: 1 (OK).

Checking basic patch addressing...
                   Patch    Faces   Points
                   inlet     1260     1518
                  outlet     6750     7429
                    left     4680     5313
                   right     4680     5313
                   floor    95596   100094
                     top     6552     7406
                gtsModel   947652   964641

Checking basic faceZone addressing...
    No faceZones found.

Checking basic cellZone addressing...
    No cellZones found.

Checking geometry...
    Overall domain bounding box (-7.33423 -1.524 -0.0762) (4.40057 1.524 2.0574)
    Mesh has 3 geometric (non-empty/wedge) directions (1 1 1)
    Mesh has 3 solution (non-empty) directions (1 1 1)
    Boundary openness (3.77394e-17 2.3899e-15 -4.41731e-16) OK.
    Max cell openness = 5.20943e-16 OK.
    Max aspect ratio = 20.0257 OK.
    Minimum face area = 3.14252e-08. Maximum face area = 0.0054778.  Face area magnitudes OK.
    Min volume = 2.92935e-11. Max volume = 0.000388499.  Total volume = 75.9583.  Cell volumes OK.
    Mesh non-orthogonality Max: 69.8971 average: 5.47354
    Non-orthogonality check OK.
    Face pyramids OK.
    Max skewness = 2.96191 OK.
    Coupled point location match (average 0) OK.

Mesh OK.

End

Finalising parallel run
