/*---------------------------------------------------------------------------*\
  =========                 |
  \\      /  F ield         | OpenFOAM: The Open Source CFD Toolbox
   \\    /   O peration     | Website:  https://openfoam.org
    \\  /    A nd           | Version:  7
     \\/     M anipulation  |
\*---------------------------------------------------------------------------*/
Build  : 7
Exec   : checkMesh
Date   : Feb 13 2023
Time   : 15:43:13
Host   : "compute-0-13.local"
PID    : 107059
I/O    : uncollated
Case   : /share/storage/finzeo/Mallas/GTSTunay/gts30
nProcs : 1
sigFpe : Enabling floating point exception trapping (FOAM_SIGFPE).
fileModificationChecking : Monitoring run-time modified files using timeStampMaster (fileModificationSkew 10)
allowSystemOperations : Allowing user-supplied system call operations

// * * * * * * * * * * * * * * * * * * * * * * * * * * * * * * * * * * * * * //
Create time

Create polyMesh for time = 0

Time = 0

Mesh stats
    points:           13631166
    faces:            39472868
    internal faces:   39001561
    cells:            12926775
    faces per cell:   6.07069
    boundary patches: 6
    point zones:      0
    face zones:       0
    cell zones:       0

Overall number of cells of each type:
    hexahedra:     12343078
    prisms:        55560
    wedges:        0
    pyramids:      0
    tet wedges:    90
    tetrahedra:    0
    polyhedra:     528047
    Breakdown of polyhedra by number of faces:
        faces   number of cells
            4   6912
            5   3730
            6   73314
            7   235506
            8   14673
            9   149768
           10   419
           11   4
           12   40775
           15   2927
           18   19

Checking topology...
    Boundary definition OK.
    Cell to face addressing OK.
    Point usage OK.
    Upper triangular ordering OK.
    Face vertices OK.
    Number of regions: 1 (OK).

Checking patch topology for multiply connected surfaces...
                   Patch    Faces   Points                  Surface topology
            frontAndBack    30444    31080  ok (non-closed singly connected)
                   inlet     3540     3660  ok (non-closed singly connected)
                  outlet     3540     3660  ok (non-closed singly connected)
               lowerWall    62640    63511  ok (non-closed singly connected)
               upperWall    15480    15799  ok (non-closed singly connected)
                gtsModel   355663   366737      ok (closed singly connected)

Checking geometry...
    Overall domain bounding box (-37.8 -18 -0.504) (117 18 32.4)
    Mesh has 3 geometric (non-empty/wedge) directions (1 1 1)
    Mesh has 3 solution (non-empty) directions (1 1 1)
    Boundary openness (8.92202e-16 -4.43621e-16 4.71723e-14) OK.
 ***High aspect ratio cells found, Max aspect ratio: 5.54607e+98, number of cells 171
  <<Writing 171 cells with high aspect ratio to set highAspectRatioCells
    Minimum face area = 3.98379e-07. Maximum face area = 0.512687.  Face area magnitudes OK.
 ***Zero or negative cell volume detected.  Minimum negative volume: -1.21501e-06, Number of negative volume cells: 171
  <<Writing 171 zero volume cells to set zeroVolumeCells
    Mesh non-orthogonality Max: 179.919 average: 7.05838
   *Number of severely non-orthogonal (> 70 degrees) faces: 162.
 ***Number of non-orthogonality errors: 576.
  <<Writing 738 non-orthogonal faces to set nonOrthoFaces
 ***Error in face pyramids: 1042 faces are incorrectly oriented.
  <<Writing 728 faces with incorrect orientation to set wrongOrientedFaces
 ***Max skewness = 681.495, 95 highly skew faces detected which may impair the quality of the results
  <<Writing 95 skew faces to set skewFaces
    Coupled point location match (average 0) OK.

Failed 5 mesh checks.

End

