/*---------------------------------------------------------------------------*\
  =========                 |
  \\      /  F ield         | OpenFOAM: The Open Source CFD Toolbox
   \\    /   O peration     | Website:  https://openfoam.org
    \\  /    A nd           | Version:  7
     \\/     M anipulation  |
\*---------------------------------------------------------------------------*/
Build  : 7
Exec   : snappyHexMesh -parallel -overwrite -dict ../system/snappyHexMeshLayersDict
Date   : Feb 13 2023
Time   : 15:32:28
Host   : "compute-0-13.local"
PID    : 106978
I/O    : uncollated
Case   : /share/storage/finzeo/Mallas/GTSTunay/gts30
nProcs : 20
Slaves : 
19
(
"compute-0-13.local.106979"
"compute-0-13.local.106980"
"compute-0-13.local.106981"
"compute-0-13.local.106982"
"compute-0-13.local.106983"
"compute-0-13.local.106984"
"compute-0-13.local.106985"
"compute-0-13.local.106986"
"compute-0-13.local.106987"
"compute-0-13.local.106988"
"compute-0-13.local.106989"
"compute-0-13.local.106990"
"compute-0-13.local.106991"
"compute-0-13.local.106992"
"compute-0-13.local.106993"
"compute-0-13.local.106994"
"compute-0-13.local.106995"
"compute-0-13.local.106996"
"compute-0-13.local.106997"
)

Pstream initialized with:
    floatTransfer      : 0
    nProcsSimpleSum    : 0
    commsType          : nonBlocking
    polling iterations : 0
sigFpe : Enabling floating point exception trapping (FOAM_SIGFPE).
fileModificationChecking : Monitoring run-time modified files using timeStampMaster (fileModificationSkew 10)
allowSystemOperations : Allowing user-supplied system call operations

// * * * * * * * * * * * * * * * * * * * * * * * * * * * * * * * * * * * * * //
Create time

Create mesh for time = 0

Read mesh in = 0.44 s

Overall mesh bounding box  : (-37.8 -18 -0.504) (117 18 32.4)
Relative tolerance         : 1e-06
Absolute matching distance : 0.000162301

Reading refinement surfaces.
--> FOAM Warning : 
    From function Foam::refinementSurfaces::refinementSurfaces(const Foam::searchableSurfaces&, const Foam::dictionary&, Foam::label)
    in file refinementSurfaces/refinementSurfaces.C at line 221
    Reading "/share/storage/finzeo/Mallas/GTSTunay/gts30/processor0/../system/snappyHexMeshLayersDict.castellatedMeshControls.refinementSurfaces" from line 142 to line 206
    Not all entries in refinementSurfaces dictionary were used. The following entries were not used : 
5
(
frontAndBack
inlet
lowerWall
outlet
upperWall
)

Read refinement surfaces in = 0.52 s

Reading refinement shells.
Refinement level according to distance to gtsModel
    level 4 for all cells within 0.4 metre.
Refinement level 1 for all cells inside refinementBox1
Refinement level 2 for all cells inside refinementBox2
Refinement level 3 for all cells inside refinementBox3
Read refinement shells in = 0 s

Setting refinement level of surface to be consistent with shells.
Checked shell refinement in = 0 s

Reading features.
Read edgeMesh vehicleSurfaceMesh.eMesh
    points      : 73863
    edges       : 130303
    boundingBox : (-12.2 -1.3 0) (0 1.3 3.6)

Refinement level according to distance to "vehicleSurfaceMesh.eMesh" (73863 points, 130303 edges).
    level 6 for all cells within 0 metre.
Read features in = 0.4 s


Determining initial surface intersections
-----------------------------------------

Edge intersection testing:
    Number of edges             : 20261611
    Number of edges to retest   : 20261611
    Number of intersected edges : 355629
Calculated surface intersections in = 3.43 s

Initial mesh : cells:6567228  faces:20261611  points:7139054
[1]  Foam::decompositionMethod::New 
[1] {
[1]     numberOfSubdomains 20;
[1]     method          scotch;
[1]     simpleCoeffs
[1]     {
[1]         n               ( 4 1 1 );
[1]         delta           0.001;
[1]     }
[1]     hierarchicalCoeffs
[1]     {
[1]         n               ( 3 2 1 );
[1]         delta           0.001;
[1]         order           xyz;
[1]     }
[1]     manualCoeffs
[1]     {
[1]         dataFile        "cellDecomposition";
[1]     }
[1]     scotchCoeffs
[1]     {
[1]         processorWeights ( 1 1 1 1 1 1 1 1 1 1 1 1 1 1 1 1 1 1 1 1 );
[1]     }
[1] }
[1] 
[1] Selecting decompositionMethod scotch
[2]  Foam::decompositionMethod::New 
[2] {
[2]     numberOfSubdomains 20;
[2]     method          scotch;
[2]     simpleCoeffs
[2]     {
[2]         n               ( 4 1 1 );
[2]         delta           0.001;
[2]     }
[2]     hierarchicalCoeffs
[2]     {
[2]         n               ( 3 2 1 );
[2]         delta           0.001;
[2]         order           xyz;
[2]     }
[2]     manualCoeffs
[2]     {
[2]         dataFile        "cellDecomposition";
[2]     }
[2]     scotchCoeffs
[2]     {
[2]         processorWeights ( 1 1 1 1 1 1 1 1 1 1 1 1 1 1 1 1 1 1 1 1 );
[2]     }
[2] }
[2] 
[2] Selecting decompositionMethod scotch
[3]  Foam::decompositionMethod::New 
[3] {
[3]     numberOfSubdomains 20;
[3]     method          scotch;
[3]     simpleCoeffs
[3]     {
[3]         n               ( 4 1 1 );
[3]         delta           0.001;
[3]     }
[3]     hierarchicalCoeffs
[3]     {
[3]         n               ( 3 2 1 );
[3]         delta           0.001;
[3]         order           xyz;
[3]     }
[3]     manualCoeffs
[3]     {
[3]         dataFile        "cellDecomposition";
[3]     }
[3]     scotchCoeffs
[3]     {
[3]         processorWeights ( 1 1 1 1 1 1 1 1 1 1 1 1 1 1 1 1 1 1 1 1 );
[3]     }
[3] }
[3] 
[3] Selecting decompositionMethod scotch
[4]  Foam::decompositionMethod::New 
[4] {
[4]     numberOfSubdomains 20;
[4]     method          scotch;
[4]     simpleCoeffs
[4]     {
[4]         n               ( 4 1 1 );
[4]         delta           0.001;
[4]     }
[4]     hierarchicalCoeffs
[4]     {
[4]         n               ( 3 2 1 );
[4]         delta           0.001;
[4]         order           xyz;
[4]     }
[4]     manualCoeffs
[4]     {
[4]         dataFile        "cellDecomposition";
[4]     }
[4]     scotchCoeffs
[4]     {
[4]         processorWeights ( 1 1 1 1 1 1 1 1 1 1 1 1 1 1 1 1 1 1 1 1 );
[4]     }
[4] }
[4] 
[4] Selecting decompositionMethod scotch
[5]  Foam::decompositionMethod::New 
[5] {
[5]     numberOfSubdomains 20;
[5]     method          scotch;
[5]     simpleCoeffs
[5]     {
[5]         n               ( 4 1 1 );
[5]         delta           0.001;
[5]     }
[5]     hierarchicalCoeffs
[5]     {
[5]         n               ( 3 2 1 );
[5]         delta           0.001;
[5]         order           xyz;
[5]     }
[5]     manualCoeffs
[5]     {
[5]         dataFile        "cellDecomposition";
[5]     }
[5]     scotchCoeffs
[5]     {
[5]         processorWeights ( 1 1 1 1 1 1 1 1 1 1 1 1 1 1 1 1 1 1 1 1 );
[5]     }
[5] }
[5] 
[5] Selecting decompositionMethod scotch
[6]  Foam::decompositionMethod::New 
[6] {
[6]     numberOfSubdomains 20;
[6]     method          scotch;
[6]     simpleCoeffs
[6]     {
[6]         n               ( 4 1 1 );
[6]         delta           0.001;
[6]     }
[6]     hierarchicalCoeffs
[6]     {
[6]         n               ( 3 2 1 );
[6]         delta           0.001;
[6]         order           xyz;
[6]     }
[6]     manualCoeffs
[6]     {
[6]         dataFile        "cellDecomposition";
[6]     }
[6]     scotchCoeffs
[6]     {
[6]         processorWeights ( 1 1 1 1 1 1 1 1 1 1 1 1 1 1 1 1 1 1 1 1 );
[6]     }
[6] }
[6] 
[6] Selecting decompositionMethod scotch
[7]  Foam::decompositionMethod::New 
[7] {
[7]     numberOfSubdomains 20;
[7]     method          scotch;
[7]     simpleCoeffs
[7]     {
[7]         n               ( 4 1 1 );
[7]         delta           0.001;
[7]     }
[7]     hierarchicalCoeffs
[7]     {
[7]         n               ( 3 2 1 );
[7]         delta           0.001;
[7]         order           xyz;
[7]     }
[7]     manualCoeffs
[7]     {
[7]         dataFile        "cellDecomposition";
[7]     }
[7]     scotchCoeffs
[7]     {
[7]         processorWeights ( 1 1 1 1 1 1 1 1 1 1 1 1 1 1 1 1 1 1 1 1 );
[7]     }
[7] }
[7] 
[7] Selecting decompositionMethod scotch
[8]  Foam::decompositionMethod::New 
[8] {
[8]     numberOfSubdomains 20;
[8]     method          scotch;
[8]     simpleCoeffs
[8]     {
[8]         n               ( 4 1 1 );
[8]         delta           0.001;
[8]     }
[8]     hierarchicalCoeffs
[8]     {
[8]         n               ( 3 2 1 );
[8]         delta           0.001;
[8]         order           xyz;
[8]     }
[8]     manualCoeffs
[8]     {
[8]         dataFile        "cellDecomposition";
[8]     }
[8]     scotchCoeffs
[8]     {
[8]         processorWeights ( 1 1 1 1 1 1 1 1 1 1 1 1 1 1 1 1 1 1 1 1 );
[8]     }
[8] }
[8] 
[8] Selecting decompositionMethod scotch
[9]  Foam::decompositionMethod::New 
[9] {
[9]     numberOfSubdomains 20;
[9]     method          scotch;
[9]     simpleCoeffs
[9]     {
[9]         n               ( 4 1 1 );
[9]         delta           0.001;
[9]     }
[9]     hierarchicalCoeffs
[9]     {
[9]         n               ( 3 2 1 );
[9]         delta           0.001;
[9]         order           xyz;
[9]     }
[9]     manualCoeffs
[9]     {
[9]         dataFile        "cellDecomposition";
[9]     }
[9]     scotchCoeffs
[9]     {
[9]         processorWeights ( 1 1 1 1 1 1 1 1 1 1 1 1 1 1 1 1 1 1 1 1 );
[9]     }
[9] }
[9] 
[9] Selecting decompositionMethod scotch
[10]  Foam::decompositionMethod::New 
[10] {
[10]     numberOfSubdomains 20;
[10]     method          scotch;
[10]     simpleCoeffs
[10]     {
[10]         n               ( 4 1 1 );
[10]         delta           0.001;
[10]     }
[10]     hierarchicalCoeffs
[10]     {
[10]         n               ( 3 2 1 );
[10]         delta           0.001;
[10]         order           xyz;
[10]     }
[10]     manualCoeffs
[10]     {
[10]         dataFile        "cellDecomposition";
[10]     }
[10]     scotchCoeffs
[10]     {
[10]         processorWeights ( 1 1 1 1 1 1 1 1 1 1 1 1 1 1 1 1 1 1 1 1 );
[10]     }
[10] }
[10] 
[10] Selecting decompositionMethod scotch
[11]  Foam::decompositionMethod::New 
[11] {
[11]     numberOfSubdomains 20;
[11]     method          scotch;
[11]     simpleCoeffs
[11]     {
[11]         n               ( 4 1 1 );
[11]         delta           0.001;
[11]     }
[11]     hierarchicalCoeffs
[11]     {
[11]         n               ( 3 2 1 );
[11]         delta           0.001;
[11]         order           xyz;
[11]     }
[11]     manualCoeffs
[11]     {
[11]         dataFile        "cellDecomposition";
[11]     }
[11]     scotchCoeffs
[11]     {
[11]         processorWeights ( 1 1 1 1 1 1 1 1 1 1 1 1 1 1 1 1 1 1 1 1 );
[11]     }
[11] }
[11] 
[11] Selecting decompositionMethod scotch
[12]  Foam::decompositionMethod::New 
[12] {
[12]     numberOfSubdomains 20;
[12]     method          scotch;
[12]     simpleCoeffs
[12]     {
[12]         n               ( 4 1 1 );
[12]         delta           0.001;
[12]     }
[12]     hierarchicalCoeffs
[12]     {
[12]         n               ( 3 2 1 );
[12]         delta           0.001;
[12]         order           xyz;
[12]     }
[12]     manualCoeffs
[12]     {
[12]         dataFile        "cellDecomposition";
[12]     }
[12]     scotchCoeffs
[12]     {
[12]         processorWeights ( 1 1 1 1 1 1 1 1 1 1 1 1 1 1 1 1 1 1 1 1 );
[12]     }
[12] }
[12] 
[12] Selecting decompositionMethod scotch
[13]  Foam::decompositionMethod::New 
[13] {
[13]     numberOfSubdomains 20;
[13]     method          scotch;
[13]     simpleCoeffs
[13]     {
[13]         n               ( 4 1 1 );
[13]         delta           0.001;
[13]     }
[13]     hierarchicalCoeffs
[13]     {
[13]         n               ( 3 2 1 );
[13]         delta           0.001;
[13]         order           xyz;
[13]     }
[13]     manualCoeffs
[13]     {
[13]         dataFile        "cellDecomposition";
[13]     }
[13]     scotchCoeffs
[13]     {
[13]         processorWeights ( 1 1 1 1 1 1 1 1 1 1 1 1 1 1 1 1 1 1 1 1 );
[13]     }
[13] }
[13] 
[13] Selecting decompositionMethod scotch
[14]  Foam::decompositionMethod::New 
[14] {
[14]     numberOfSubdomains 20;
[14]     method          scotch;
[14]     simpleCoeffs
[14]     {
[14]         n               ( 4 1 1 );
[14]         delta           0.001;
[14]     }
[14]     hierarchicalCoeffs
[14]     {
[14]         n               ( 3 2 1 );
[14]         delta           0.001;
[14]         order           xyz;
[14]     }
[14]     manualCoeffs
[14]     {
[14]         dataFile        "cellDecomposition";
[14]     }
[14]     scotchCoeffs
[14]     {
[14]         processorWeights ( 1 1 1 1 1 1 1 1 1 1 1 1 1 1 1 1 1 1 1 1 );
[14]     }
[14] }
[14] 
[14] Selecting decompositionMethod scotch
[15]  Foam::decompositionMethod::New 
[15] {
[15]     numberOfSubdomains 20;
[15]     method          scotch;
[15]     simpleCoeffs
[15]     {
[15]         n               ( 4 1 1 );
[15]         delta           0.001;
[15]     }
[15]     hierarchicalCoeffs
[15]     {
[15]         n               ( 3 2 1 );
[15]         delta           0.001;
[15]         order           xyz;
[15]     }
[15]     manualCoeffs
[15]     {
[15]         dataFile        "cellDecomposition";
[15]     }
[15]     scotchCoeffs
[15]     {
[15]         processorWeights ( 1 1 1 1 1 1 1 1 1 1 1 1 1 1 1 1 1 1 1 1 );
[15]     }
[15] }
[15] 
[15] Selecting decompositionMethod scotch
[16]  Foam::decompositionMethod::New 
[16] {
[16]     numberOfSubdomains 20;
[16]     method          scotch;
[16]     simpleCoeffs
[16]     {
[16]         n               ( 4 1 1 );
[16]         delta           0.001;
[16]     }
[16]     hierarchicalCoeffs
[16]     {
[16]         n               ( 3 2 1 );
[16]         delta           0.001;
[16]         order           xyz;
[16]     }
[16]     manualCoeffs
[16]     {
[16]         dataFile        "cellDecomposition";
[16]     }
[16]     scotchCoeffs
[16]     {
[16]         processorWeights ( 1 1 1 1 1 1 1 1 1 1 1 1 1 1 1 1 1 1 1 1 );
[16]     }
[16] }
[16] 
[16] Selecting decompositionMethod scotch
[17]  Foam::decompositionMethod::New 
[17] {
[17]     numberOfSubdomains 20;
[17]     method          scotch;
[17]     simpleCoeffs
[17]     {
[17]         n               ( 4 1 1 );
[17]         delta           0.001;
[17]     }
[17]     hierarchicalCoeffs
[17]     {
[17]         n               ( 3 2 1 );
[17]         delta           0.001;
[17]         order           xyz;
[17]     }
[17]     manualCoeffs
[17]     {
[17]         dataFile        "cellDecomposition";
[17]     }
[17]     scotchCoeffs
[17]     {
[17]         processorWeights ( 1 1 1 1 1 1 1 1 1 1 1 1 1 1 1 1 1 1 1 1 );
[17]     }
[17] }
[17] 
[17] Selecting decompositionMethod scotch
[18]  Foam::decompositionMethod::New 
[18] {
[18]     numberOfSubdomains 20;
[18]     method          scotch;
[18]     simpleCoeffs
[18]     {
[18]         n               ( 4 1 1 );
[18]         delta           0.001;
[18]     }
[18]     hierarchicalCoeffs
[18]     {
[18]         n               ( 3 2 1 );
[18]         delta           0.001;
[18]         order           xyz;
[18]     }
[18]     manualCoeffs
[18]     {
[18]         dataFile        "cellDecomposition";
[18]     }
[18]     scotchCoeffs
[18]     {
[18]         processorWeights ( 1 1 1 1 1 1 1 1 1 1 1 1 1 1 1 1 1 1 1 1 );
[18]     }
[18] }
[18] 
[18] Selecting decompositionMethod scotch
[19]  Foam::decompositionMethod::New 
[19] {
[19]     numberOfSubdomains 20;
[19]     method          scotch;
[19]     simpleCoeffs
[19]     {
[19]         n               ( 4 1 1 );
[19]         delta           0.001;
[19]     }
[19]     hierarchicalCoeffs
[19]     {
[19]         n               ( 3 2 1 );
[19]         delta           0.001;
[19]         order           xyz;
[19]     }
[19]     manualCoeffs
[19]     {
[19]         dataFile        "cellDecomposition";
[19]     }
[19]     scotchCoeffs
[19]     {
[19]         processorWeights ( 1 1 1 1 1 1 1 1 1 1 1 1 1 1 1 1 1 1 1 1 );
[19]     }
[19] }
[19] 
[19] Selecting decompositionMethod scotch
Cells per refinement level:
    0	784840
    1	471328
    2	160592
    3	2182172
    4	1360779
    5	445002
    6	1162515

Adding patches for surface regions
----------------------------------

Patch Type                Region                        
----- ----                ------                        
gtsModel:

5     wall                gtsModel                      

Added patches in = 0 s

[0]  Foam::decompositionMethod::New 
[0] {
[0]     numberOfSubdomains 20;
[0]     method          scotch;
[0]     simpleCoeffs
[0]     {
[0]         n               ( 4 1 1 );
[0]         delta           0.001;
[0]     }
[0]     hierarchicalCoeffs
[0]     {
[0]         n               ( 3 2 1 );
[0]         delta           0.001;
[0]         order           xyz;
[0]     }
[0]     manualCoeffs
[0]     {
[0]         dataFile        "cellDecomposition";
[0]     }
[0]     scotchCoeffs
[0]     {
[0]         processorWeights ( 1 1 1 1 1 1 1 1 1 1 1 1 1 1 1 1 1 1 1 1 );
[0]     }
[0] }
[0] 
[0] Selecting decompositionMethod scotch
Layer thickness specified as final layer and expansion ratio.
--> FOAM Warning : 
    From function Foam::labelHashSet Foam::polyBoundaryMesh::patchSet(const Foam::UList<Foam::wordRe>&, bool, bool) const
    in file meshes/polyMesh/polyBoundaryMesh/polyBoundaryMesh.C at line 804
    Cannot find any patch or group names matching bottomNoSlip
--> FOAM Warning : 
    From function Foam::layerParameters::layerParameters(const Foam::dictionary&, const Foam::polyBoundaryMesh&)
    in file snappyHexMeshDriver/layerParameters/layerParameters.C at line 279
    Reading "/share/storage/finzeo/Mallas/GTSTunay/gts30/processor0/../system/snappyHexMeshLayersDict.addLayersControls.layers" from line 341 to line 353
    Layer specification for bottomNoSlip does not match any patch.
Valid patches are 
16
(
frontAndBack
inlet
outlet
lowerWall
upperWall
gtsModel
procBoundary0to2
procBoundary0to3
procBoundary0to4
procBoundary0to5
procBoundary0to8
procBoundary0to9
procBoundary0to12
procBoundary0to13
procBoundary0to16
procBoundary0to17
)

--> FOAM Warning : 
    From function Foam::labelHashSet Foam::polyBoundaryMesh::patchSet(const Foam::UList<Foam::wordRe>&, bool, bool) const
    in file meshes/polyMesh/polyBoundaryMesh/polyBoundaryMesh.C at line 804
    Cannot find any patch or group names matching bottomSlip
--> FOAM Warning : 
    From function Foam::layerParameters::layerParameters(const Foam::dictionary&, const Foam::polyBoundaryMesh&)
    in file snappyHexMeshDriver/layerParameters/layerParameters.C at line 279
    Reading "/share/storage/finzeo/Mallas/GTSTunay/gts30/processor0/../system/snappyHexMeshLayersDict.addLayersControls.layers" from line 341 to line 353
    Layer specification for bottomSlip does not match any patch.
Valid patches are 
16
(
frontAndBack
inlet
outlet
lowerWall
upperWall
gtsModel
procBoundary0to2
procBoundary0to3
procBoundary0to4
procBoundary0to5
procBoundary0to8
procBoundary0to9
procBoundary0to12
procBoundary0to13
procBoundary0to16
procBoundary0to17
)


Shrinking and layer addition phase
----------------------------------

Using mesh parameters 
{
    maxNonOrtho     65;
    maxBoundarySkewness 20;
    maxInternalSkewness 4;
    maxConcave      80;
    minVol          1e-13;
    minTetQuality   1e-15;
    minArea         -1;
    minTwist        0.01;
    minDeterminant  0.001;
    minFaceWeight   0.02;
    minVolRatio     0.01;
    minTriangleTwist -1;
    nSmoothScale    4;
    errorReduction  0.75;
}



Merging all faces of a cell
---------------------------
    - which are on the same patch
    - which make an angle < 60 degrees
      (cos:0.5)
    - as long as the resulting face doesn't become concave by more than 90 degrees
      (0=straight, 180=fully concave)

Merging 386 sets of faces.

Edge intersection testing:
    Number of edges             : 20261219
    Number of edges to retest   : 1862
    Number of intersected edges : 355241

Undo iteration 0
----------------
Checking faces in error :
    non-orthogonality > 65  degrees                        : 0
    faces with face pyramid volume < 1e-13                 : 0
    faces with face-decomposition tet quality < 1e-15      : 4
    faces with concavity > 80  degrees                     : 0
    faces with skewness > 4   (internal) or 20  (boundary) : 0
    faces with interpolation weights (0..1)  < 0.02        : 0
    faces with volume ratio of neighbour cells < 0.01      : 0
    faces with face twist < 0.01                           : 0
    faces on cells with determinant < 0.001                : 0
Masters that need to be restored:4
Edge intersection testing:
    Number of edges             : 20261227
    Number of edges to retest   : 36
    Number of intersected edges : 355249


Undo iteration 1
----------------
Checking faces in error :
    non-orthogonality > 65  degrees                        : 0
    faces with face pyramid volume < 1e-13                 : 0
    faces with face-decomposition tet quality < 1e-15      : 0
    faces with concavity > 80  degrees                     : 0
    faces with skewness > 4   (internal) or 20  (boundary) : 0
    faces with interpolation weights (0..1)  < 0.02        : 0
    faces with volume ratio of neighbour cells < 0.01      : 0
    faces with face twist < 0.01                           : 0
    faces on cells with determinant < 0.001                : 0

Merging all points on surface that
- are used by only two boundary faces and
- make an angle with a cosine of more than 0.5.

Removing 420 straight edge points ...

Edge intersection testing:
    Number of edges             : 20261227
    Number of edges to retest   : 2924
    Number of intersected edges : 355251

Undo iteration 0
----------------
Checking faces in error :
    non-orthogonality > 65  degrees                        : 0
    faces with face pyramid volume < 1e-13                 : 0
    faces with face-decomposition tet quality < 1e-15      : 0
    faces with concavity > 80  degrees                     : 0
    faces with skewness > 4   (internal) or 20  (boundary) : 0
    faces with interpolation weights (0..1)  < 0.02        : 0
    faces with volume ratio of neighbour cells < 0.01      : 0
    faces with face twist < 0.01                           : 0
    faces on cells with determinant < 0.001                : 0

Checking mesh manifoldness ...
Outside of mesh is multiply connected across edges or points.
This is not a fatal error but might cause some unexpected behaviour.


Checking initial mesh ...
Checking faces in error :
    non-orthogonality > 65  degrees                        : 0
    faces with face pyramid volume < 1e-13                 : 0
    faces with face-decomposition tet quality < 1e-15      : 0
    faces with concavity > 80  degrees                     : 0
    faces with skewness > 4   (internal) or 20  (boundary) : 0
    faces with interpolation weights (0..1)  < 0.02        : 0
    faces with volume ratio of neighbour cells < 0.01      : 0
    faces with face twist < 0.01                           : 0
    faces on cells with determinant < 0.001                : 0
Detected 0 illegal faces (concave, zero area or negative cell pyramid volume)

Doing initial balancing
-----------------------

Found 0 zoned faces to keep together.
Found 0 separated coupled faces to keep together.

Adding in total 0 inter-processor patches to handle extrusion of non-manifold processor boundaries.

Handling points with inconsistent layer specification ...

Handling non-manifold points ...

Checking patch manifoldness ...
Outside of local patch is multiply connected across edges or points at 3 points.
Set displacement to zero for all 3 non-manifold points

Handling feature edges ...

Handling cells with warped patch faces ...
Set displacement to zero on 0 warped faces since layer would be > 0.5 of the size of the bounding box.

patch     faces    layers avg thickness[m]
                          near-wall overall
-----     -----    ------ --------- -------
lowerWall 62640    4      0.0771    0.414   
gtsModel  355663   21     0.000268  0.0602  

Selecting externalDisplacementMeshMover displacementMedialAxis
displacementMedialAxis : Calculating distance to Medial Axis ...
displacementMedialAxis : Smoothing normals ...
    Iteration 0   residual 0.00779979
displacementMedialAxis : Inserting points on patch frontAndBack if angle to nearest layer patch > 30 degrees.
displacementMedialAxis : Inserting points on patch inlet if angle to nearest layer patch > 30 degrees.
displacementMedialAxis : Inserting points on patch outlet if angle to nearest layer patch > 30 degrees.
displacementMedialAxis : Inserting points on patch upperWall if angle to nearest layer patch > 30 degrees.
displacementMedialAxis : Smoothing normals in interior ...
    Iteration 0   residual 0.0149291

Layer addition iteration 0
--------------------------

Determining displacement for added points according to pointNormal ...
Detected 0 points with point normal pointing through faces.
Reset displacement at 0 points to average of surrounding points.

displacementMedialAxis : Smoothing using Medial Axis ...
displacementMedialAxis : Reducing layer thickness at 27470 nodes where thickness to medial axis distance is large 
displacementMedialAxis : Removing isolated regions ...
displacementMedialAxis : Number of isolated points extrusion stopped : 0
displacementMedialAxis : Smoothing field ...
    Iteration 0   residual 0.000147779
displacementMedialAxis : Moving mesh ...
displacementMedialAxis : Iteration 0
Moving mesh using displacement scaling : min:1  max:1
Checking faces in error :
    non-orthogonality > 65  degrees                        : 67
    faces with face pyramid volume < 1e-13                 : 2
    faces with face-decomposition tet quality < 1e-15      : 325
    faces with concavity > 80  degrees                     : 29
    faces with skewness > 4   (internal) or 20  (boundary) : 0
    faces with interpolation weights (0..1)  < 0.02        : 0
    faces with volume ratio of neighbour cells < 0.01      : 0
    faces with face twist < 0.01                           : 0
    faces on cells with determinant < 0.001                : 1
displacementMedialAxis : Iteration 1
Moving mesh using displacement scaling : min:0.75  max:1
Checking faces in error :
    non-orthogonality > 65  degrees                        : 25
    faces with face pyramid volume < 1e-13                 : 3
    faces with face-decomposition tet quality < 1e-15      : 351
    faces with concavity > 80  degrees                     : 0
    faces with skewness > 4   (internal) or 20  (boundary) : 0
    faces with interpolation weights (0..1)  < 0.02        : 0
    faces with volume ratio of neighbour cells < 0.01      : 0
    faces with face twist < 0.01                           : 3
    faces on cells with determinant < 0.001                : 0
displacementMedialAxis : Iteration 2
Moving mesh using displacement scaling : min:0.5625  max:1
Checking faces in error :
    non-orthogonality > 65  degrees                        : 14
    faces with face pyramid volume < 1e-13                 : 1
    faces with face-decomposition tet quality < 1e-15      : 364
    faces with concavity > 80  degrees                     : 1
    faces with skewness > 4   (internal) or 20  (boundary) : 0
    faces with interpolation weights (0..1)  < 0.02        : 0
    faces with volume ratio of neighbour cells < 0.01      : 0
    faces with face twist < 0.01                           : 0
    faces on cells with determinant < 0.001                : 0
displacementMedialAxis : Iteration 3
displacementMedialAxis : Displacement scaling for error reduction set to 0.
Moving mesh using displacement scaling : min:0.421875  max:1
Checking faces in error :
    non-orthogonality > 65  degrees                        : 6
    faces with face pyramid volume < 1e-13                 : 0
    faces with face-decomposition tet quality < 1e-15      : 353
    faces with concavity > 80  degrees                     : 0
    faces with skewness > 4   (internal) or 20  (boundary) : 0
    faces with interpolation weights (0..1)  < 0.02        : 0
    faces with volume ratio of neighbour cells < 0.01      : 0
    faces with face twist < 0.01                           : 0
    faces on cells with determinant < 0.001                : 1
displacementMedialAxis : Iteration 4
Moving mesh using displacement scaling : min:0  max:1
Checking faces in error :
    non-orthogonality > 65  degrees                        : 240
    faces with face pyramid volume < 1e-13                 : 9
    faces with face-decomposition tet quality < 1e-15      : 86
    faces with concavity > 80  degrees                     : 1
    faces with skewness > 4   (internal) or 20  (boundary) : 0
    faces with interpolation weights (0..1)  < 0.02        : 0
    faces with volume ratio of neighbour cells < 0.01      : 0
    faces with face twist < 0.01                           : 8
    faces on cells with determinant < 0.001                : 1
displacementMedialAxis : Iteration 5
Moving mesh using displacement scaling : min:0  max:1
Checking faces in error :
    non-orthogonality > 65  degrees                        : 857
    faces with face pyramid volume < 1e-13                 : 19
    faces with face-decomposition tet quality < 1e-15      : 155
    faces with concavity > 80  degrees                     : 0
    faces with skewness > 4   (internal) or 20  (boundary) : 0
    faces with interpolation weights (0..1)  < 0.02        : 0
    faces with volume ratio of neighbour cells < 0.01      : 0
    faces with face twist < 0.01                           : 4
    faces on cells with determinant < 0.001                : 0
displacementMedialAxis : Finished moving mesh ...
truncateDisplacement : Unextruded 4 faces due to non-consecutive vertices being extruded.
truncateDisplacement : Unextruded 0 faces due to stringed edges with inconsistent extrusion.
truncateDisplacement : Unextruded 0 faces due to non-consecutive vertices being extruded.
truncateDisplacement : Unextruded 0 faces due to stringed edges with inconsistent extrusion.

Setting up information for layer truncation ...

Checking mesh with layer ...
Checking faces in error :
    non-orthogonality > 65  degrees                        : 896
    faces with face pyramid volume < 1e-13                 : 14
    faces with face-decomposition tet quality < 1e-15      : 2650
    faces with concavity > 80  degrees                     : 0
    faces with skewness > 4   (internal) or 20  (boundary) : 0
    faces with interpolation weights (0..1)  < 0.02        : 0
    faces with volume ratio of neighbour cells < 0.01      : 0
    faces with face twist < 0.01                           : 0
    faces on cells with determinant < 0.001                : 0
Detected 3560 illegal faces (concave, zero area or negative cell pyramid volume)
Extruding 416222 out of 418303 faces (99.5025%). Removed extrusion at 847 faces.
Added 7218364 out of 7719483 cells (93.5084%).


Layer addition iteration 1
--------------------------

Determining displacement for added points according to pointNormal ...
Detected 0 points with point normal pointing through faces.
Reset displacement at 0 points to average of surrounding points.

displacementMedialAxis : Smoothing using Medial Axis ...
displacementMedialAxis : Reducing layer thickness at 27470 nodes where thickness to medial axis distance is large 
displacementMedialAxis : Removing isolated regions ...
displacementMedialAxis : Number of isolated points extrusion stopped : 628
displacementMedialAxis : Smoothing field ...
    Iteration 0   residual 0.000199686
displacementMedialAxis : Moving mesh ...
displacementMedialAxis : Iteration 0
Moving mesh using displacement scaling : min:1  max:1
Checking faces in error :
    non-orthogonality > 65  degrees                        : 7407
    faces with face pyramid volume < 1e-13                 : 204
    faces with face-decomposition tet quality < 1e-15      : 6941
    faces with concavity > 80  degrees                     : 163
    faces with skewness > 4   (internal) or 20  (boundary) : 0
    faces with interpolation weights (0..1)  < 0.02        : 1
    faces with volume ratio of neighbour cells < 0.01      : 4
    faces with face twist < 0.01                           : 9
    faces on cells with determinant < 0.001                : 107
displacementMedialAxis : Iteration 1
Moving mesh using displacement scaling : min:0.75  max:1
Checking faces in error :
    non-orthogonality > 65  degrees                        : 2680
    faces with face pyramid volume < 1e-13                 : 45
    faces with face-decomposition tet quality < 1e-15      : 3477
    faces with concavity > 80  degrees                     : 95
    faces with skewness > 4   (internal) or 20  (boundary) : 0
    faces with interpolation weights (0..1)  < 0.02        : 0
    faces with volume ratio of neighbour cells < 0.01      : 0
    faces with face twist < 0.01                           : 5
    faces on cells with determinant < 0.001                : 72
displacementMedialAxis : Iteration 2
Moving mesh using displacement scaling : min:0.5625  max:1
Checking faces in error :
    non-orthogonality > 65  degrees                        : 734
    faces with face pyramid volume < 1e-13                 : 12
    faces with face-decomposition tet quality < 1e-15      : 1508
    faces with concavity > 80  degrees                     : 59
    faces with skewness > 4   (internal) or 20  (boundary) : 0
    faces with interpolation weights (0..1)  < 0.02        : 0
    faces with volume ratio of neighbour cells < 0.01      : 0
    faces with face twist < 0.01                           : 2
    faces on cells with determinant < 0.001                : 50
displacementMedialAxis : Iteration 3
displacementMedialAxis : Displacement scaling for error reduction set to 0.
Moving mesh using displacement scaling : min:0.421875  max:1
Checking faces in error :
    non-orthogonality > 65  degrees                        : 248
    faces with face pyramid volume < 1e-13                 : 0
    faces with face-decomposition tet quality < 1e-15      : 897
    faces with concavity > 80  degrees                     : 11
    faces with skewness > 4   (internal) or 20  (boundary) : 0
    faces with interpolation weights (0..1)  < 0.02        : 0
    faces with volume ratio of neighbour cells < 0.01      : 0
    faces with face twist < 0.01                           : 1
    faces on cells with determinant < 0.001                : 34
displacementMedialAxis : Iteration 4
Moving mesh using displacement scaling : min:0  max:1
Checking faces in error :
    non-orthogonality > 65  degrees                        : 6557
    faces with face pyramid volume < 1e-13                 : 605
    faces with face-decomposition tet quality < 1e-15      : 1729
    faces with concavity > 80  degrees                     : 42
    faces with skewness > 4   (internal) or 20  (boundary) : 1
    faces with interpolation weights (0..1)  < 0.02        : 18
    faces with volume ratio of neighbour cells < 0.01      : 49
    faces with face twist < 0.01                           : 10
    faces on cells with determinant < 0.001                : 87
displacementMedialAxis : Iteration 5
Moving mesh using displacement scaling : min:0  max:1
Checking faces in error :
    non-orthogonality > 65  degrees                        : 10313
    faces with face pyramid volume < 1e-13                 : 997
    faces with face-decomposition tet quality < 1e-15      : 2552
    faces with concavity > 80  degrees                     : 49
    faces with skewness > 4   (internal) or 20  (boundary) : 0
    faces with interpolation weights (0..1)  < 0.02        : 11
    faces with volume ratio of neighbour cells < 0.01      : 66
    faces with face twist < 0.01                           : 19
    faces on cells with determinant < 0.001                : 211
displacementMedialAxis : Finished moving mesh ...
truncateDisplacement : Unextruded 103 faces due to non-consecutive vertices being extruded.
truncateDisplacement : Unextruded 0 faces due to stringed edges with inconsistent extrusion.
truncateDisplacement : Unextruded 4 faces due to non-consecutive vertices being extruded.
truncateDisplacement : Unextruded 0 faces due to stringed edges with inconsistent extrusion.
truncateDisplacement : Unextruded 0 faces due to non-consecutive vertices being extruded.
truncateDisplacement : Unextruded 0 faces due to stringed edges with inconsistent extrusion.

Setting up information for layer truncation ...

Checking mesh with layer ...
Checking faces in error :
    non-orthogonality > 65  degrees                        : 10559
    faces with face pyramid volume < 1e-13                 : 880
    faces with face-decomposition tet quality < 1e-15      : 3570
    faces with concavity > 80  degrees                     : 49
    faces with skewness > 4   (internal) or 20  (boundary) : 0
    faces with interpolation weights (0..1)  < 0.02        : 11
    faces with volume ratio of neighbour cells < 0.01      : 66
    faces with face twist < 0.01                           : 5
    faces on cells with determinant < 0.001                : 209
Detected 15349 illegal faces (concave, zero area or negative cell pyramid volume)
Extruding 409750 out of 418303 faces (97.9553%). Removed extrusion at 1373 faces.
Added 6758394 out of 7719483 cells (87.5498%).


Layer addition iteration 2
--------------------------

Determining displacement for added points according to pointNormal ...
Detected 0 points with point normal pointing through faces.
Reset displacement at 0 points to average of surrounding points.

displacementMedialAxis : Smoothing using Medial Axis ...
displacementMedialAxis : Reducing layer thickness at 27470 nodes where thickness to medial axis distance is large 
displacementMedialAxis : Removing isolated regions ...
displacementMedialAxis : Number of isolated points extrusion stopped : 947
displacementMedialAxis : Smoothing field ...
    Iteration 0   residual 0.000199055
displacementMedialAxis : Moving mesh ...
displacementMedialAxis : Iteration 0
Moving mesh using displacement scaling : min:1  max:1
Checking faces in error :
    non-orthogonality > 65  degrees                        : 4431
    faces with face pyramid volume < 1e-13                 : 107
    faces with face-decomposition tet quality < 1e-15      : 3039
    faces with concavity > 80  degrees                     : 82
    faces with skewness > 4   (internal) or 20  (boundary) : 0
    faces with interpolation weights (0..1)  < 0.02        : 1
    faces with volume ratio of neighbour cells < 0.01      : 2
    faces with face twist < 0.01                           : 8
    faces on cells with determinant < 0.001                : 111
displacementMedialAxis : Iteration 1
Moving mesh using displacement scaling : min:0.75  max:1
Checking faces in error :
    non-orthogonality > 65  degrees                        : 1551
    faces with face pyramid volume < 1e-13                 : 17
    faces with face-decomposition tet quality < 1e-15      : 1409
    faces with concavity > 80  degrees                     : 36
    faces with skewness > 4   (internal) or 20  (boundary) : 0
    faces with interpolation weights (0..1)  < 0.02        : 0
    faces with volume ratio of neighbour cells < 0.01      : 0
    faces with face twist < 0.01                           : 3
    faces on cells with determinant < 0.001                : 84
displacementMedialAxis : Iteration 2
Moving mesh using displacement scaling : min:0.5625  max:1
Checking faces in error :
    non-orthogonality > 65  degrees                        : 378
    faces with face pyramid volume < 1e-13                 : 4
    faces with face-decomposition tet quality < 1e-15      : 705
    faces with concavity > 80  degrees                     : 21
    faces with skewness > 4   (internal) or 20  (boundary) : 0
    faces with interpolation weights (0..1)  < 0.02        : 0
    faces with volume ratio of neighbour cells < 0.01      : 0
    faces with face twist < 0.01                           : 0
    faces on cells with determinant < 0.001                : 22
displacementMedialAxis : Iteration 3
displacementMedialAxis : Displacement scaling for error reduction set to 0.
Moving mesh using displacement scaling : min:0.421875  max:1
Checking faces in error :
    non-orthogonality > 65  degrees                        : 93
    faces with face pyramid volume < 1e-13                 : 1
    faces with face-decomposition tet quality < 1e-15      : 419
    faces with concavity > 80  degrees                     : 2
    faces with skewness > 4   (internal) or 20  (boundary) : 0
    faces with interpolation weights (0..1)  < 0.02        : 0
    faces with volume ratio of neighbour cells < 0.01      : 0
    faces with face twist < 0.01                           : 4
    faces on cells with determinant < 0.001                : 16
displacementMedialAxis : Iteration 4
Moving mesh using displacement scaling : min:0  max:1
Checking faces in error :
    non-orthogonality > 65  degrees                        : 2983
    faces with face pyramid volume < 1e-13                 : 296
    faces with face-decomposition tet quality < 1e-15      : 725
    faces with concavity > 80  degrees                     : 15
    faces with skewness > 4   (internal) or 20  (boundary) : 0
    faces with interpolation weights (0..1)  < 0.02        : 6
    faces with volume ratio of neighbour cells < 0.01      : 23
    faces with face twist < 0.01                           : 6
    faces on cells with determinant < 0.001                : 43
displacementMedialAxis : Iteration 5
Moving mesh using displacement scaling : min:0  max:1
Checking faces in error :
    non-orthogonality > 65  degrees                        : 7425
    faces with face pyramid volume < 1e-13                 : 676
    faces with face-decomposition tet quality < 1e-15      : 1413
    faces with concavity > 80  degrees                     : 12
    faces with skewness > 4   (internal) or 20  (boundary) : 0
    faces with interpolation weights (0..1)  < 0.02        : 18
    faces with volume ratio of neighbour cells < 0.01      : 38
    faces with face twist < 0.01                           : 8
    faces on cells with determinant < 0.001                : 74
displacementMedialAxis : Finished moving mesh ...
truncateDisplacement : Unextruded 36 faces due to non-consecutive vertices being extruded.
truncateDisplacement : Unextruded 0 faces due to stringed edges with inconsistent extrusion.
truncateDisplacement : Unextruded 1 faces due to non-consecutive vertices being extruded.
truncateDisplacement : Unextruded 0 faces due to stringed edges with inconsistent extrusion.
truncateDisplacement : Unextruded 0 faces due to non-consecutive vertices being extruded.
truncateDisplacement : Unextruded 0 faces due to stringed edges with inconsistent extrusion.

Setting up information for layer truncation ...

Checking mesh with layer ...
Checking faces in error :
    non-orthogonality > 65  degrees                        : 7561
    faces with face pyramid volume < 1e-13                 : 632
    faces with face-decomposition tet quality < 1e-15      : 1870
    faces with concavity > 80  degrees                     : 12
    faces with skewness > 4   (internal) or 20  (boundary) : 0
    faces with interpolation weights (0..1)  < 0.02        : 23
    faces with volume ratio of neighbour cells < 0.01      : 39
    faces with face twist < 0.01                           : 5
    faces on cells with determinant < 0.001                : 102
Detected 10244 illegal faces (concave, zero area or negative cell pyramid volume)
Extruding 405390 out of 418303 faces (96.913%). Removed extrusion at 691 faces.
Added 6614877 out of 7719483 cells (85.6907%).


Layer addition iteration 3
--------------------------

Determining displacement for added points according to pointNormal ...
Detected 0 points with point normal pointing through faces.
Reset displacement at 0 points to average of surrounding points.

displacementMedialAxis : Smoothing using Medial Axis ...
displacementMedialAxis : Reducing layer thickness at 27470 nodes where thickness to medial axis distance is large 
displacementMedialAxis : Removing isolated regions ...
displacementMedialAxis : Number of isolated points extrusion stopped : 450
displacementMedialAxis : Smoothing field ...
    Iteration 0   residual 0.000198972
displacementMedialAxis : Moving mesh ...
displacementMedialAxis : Iteration 0
Moving mesh using displacement scaling : min:1  max:1
Checking faces in error :
    non-orthogonality > 65  degrees                        : 3921
    faces with face pyramid volume < 1e-13                 : 90
    faces with face-decomposition tet quality < 1e-15      : 2079
    faces with concavity > 80  degrees                     : 70
    faces with skewness > 4   (internal) or 20  (boundary) : 0
    faces with interpolation weights (0..1)  < 0.02        : 0
    faces with volume ratio of neighbour cells < 0.01      : 3
    faces with face twist < 0.01                           : 8
    faces on cells with determinant < 0.001                : 81
displacementMedialAxis : Iteration 1
Moving mesh using displacement scaling : min:0.75  max:1
Checking faces in error :
    non-orthogonality > 65  degrees                        : 1315
    faces with face pyramid volume < 1e-13                 : 9
    faces with face-decomposition tet quality < 1e-15      : 955
    faces with concavity > 80  degrees                     : 22
    faces with skewness > 4   (internal) or 20  (boundary) : 0
    faces with interpolation weights (0..1)  < 0.02        : 0
    faces with volume ratio of neighbour cells < 0.01      : 2
    faces with face twist < 0.01                           : 1
    faces on cells with determinant < 0.001                : 44
displacementMedialAxis : Iteration 2
Moving mesh using displacement scaling : min:0.5625  max:1
Checking faces in error :
    non-orthogonality > 65  degrees                        : 284
    faces with face pyramid volume < 1e-13                 : 2
    faces with face-decomposition tet quality < 1e-15      : 380
    faces with concavity > 80  degrees                     : 9
    faces with skewness > 4   (internal) or 20  (boundary) : 0
    faces with interpolation weights (0..1)  < 0.02        : 0
    faces with volume ratio of neighbour cells < 0.01      : 0
    faces with face twist < 0.01                           : 3
    faces on cells with determinant < 0.001                : 21
displacementMedialAxis : Iteration 3
displacementMedialAxis : Displacement scaling for error reduction set to 0.
Moving mesh using displacement scaling : min:0.421875  max:1
Checking faces in error :
    non-orthogonality > 65  degrees                        : 69
    faces with face pyramid volume < 1e-13                 : 4
    faces with face-decomposition tet quality < 1e-15      : 225
    faces with concavity > 80  degrees                     : 0
    faces with skewness > 4   (internal) or 20  (boundary) : 0
    faces with interpolation weights (0..1)  < 0.02        : 0
    faces with volume ratio of neighbour cells < 0.01      : 0
    faces with face twist < 0.01                           : 0
    faces on cells with determinant < 0.001                : 8
displacementMedialAxis : Iteration 4
Moving mesh using displacement scaling : min:0  max:1
Checking faces in error :
    non-orthogonality > 65  degrees                        : 2121
    faces with face pyramid volume < 1e-13                 : 239
    faces with face-decomposition tet quality < 1e-15      : 462
    faces with concavity > 80  degrees                     : 3
    faces with skewness > 4   (internal) or 20  (boundary) : 0
    faces with interpolation weights (0..1)  < 0.02        : 8
    faces with volume ratio of neighbour cells < 0.01      : 18
    faces with face twist < 0.01                           : 3
    faces on cells with determinant < 0.001                : 38
displacementMedialAxis : Iteration 5
Moving mesh using displacement scaling : min:0  max:1
Checking faces in error :
    non-orthogonality > 65  degrees                        : 5279
    faces with face pyramid volume < 1e-13                 : 494
    faces with face-decomposition tet quality < 1e-15      : 936
    faces with concavity > 80  degrees                     : 4
    faces with skewness > 4   (internal) or 20  (boundary) : 0
    faces with interpolation weights (0..1)  < 0.02        : 8
    faces with volume ratio of neighbour cells < 0.01      : 26
    faces with face twist < 0.01                           : 1
    faces on cells with determinant < 0.001                : 86
displacementMedialAxis : Finished moving mesh ...
truncateDisplacement : Unextruded 12 faces due to non-consecutive vertices being extruded.
truncateDisplacement : Unextruded 0 faces due to stringed edges with inconsistent extrusion.
truncateDisplacement : Unextruded 0 faces due to non-consecutive vertices being extruded.
truncateDisplacement : Unextruded 0 faces due to stringed edges with inconsistent extrusion.

Setting up information for layer truncation ...

Checking mesh with layer ...
Checking faces in error :
    non-orthogonality > 65  degrees                        : 5405
    faces with face pyramid volume < 1e-13                 : 449
    faces with face-decomposition tet quality < 1e-15      : 1185
    faces with concavity > 80  degrees                     : 4
    faces with skewness > 4   (internal) or 20  (boundary) : 0
    faces with interpolation weights (0..1)  < 0.02        : 14
    faces with volume ratio of neighbour cells < 0.01      : 26
    faces with face twist < 0.01                           : 1
    faces on cells with determinant < 0.001                : 82
Detected 7166 illegal faces (concave, zero area or negative cell pyramid volume)
Extruding 402954 out of 418303 faces (96.3307%). Removed extrusion at 489 faces.
Added 6549971 out of 7719483 cells (84.8499%).


Layer addition iteration 4
--------------------------

Determining displacement for added points according to pointNormal ...
Detected 0 points with point normal pointing through faces.
Reset displacement at 0 points to average of surrounding points.

displacementMedialAxis : Smoothing using Medial Axis ...
displacementMedialAxis : Reducing layer thickness at 27470 nodes where thickness to medial axis distance is large 
displacementMedialAxis : Removing isolated regions ...
displacementMedialAxis : Number of isolated points extrusion stopped : 254
displacementMedialAxis : Smoothing field ...
    Iteration 0   residual 0.000200674
displacementMedialAxis : Moving mesh ...
displacementMedialAxis : Iteration 0
Moving mesh using displacement scaling : min:1  max:1
Checking faces in error :
    non-orthogonality > 65  degrees                        : 3778
    faces with face pyramid volume < 1e-13                 : 82
    faces with face-decomposition tet quality < 1e-15      : 1356
    faces with concavity > 80  degrees                     : 69
    faces with skewness > 4   (internal) or 20  (boundary) : 0
    faces with interpolation weights (0..1)  < 0.02        : 1
    faces with volume ratio of neighbour cells < 0.01      : 0
    faces with face twist < 0.01                           : 4
    faces on cells with determinant < 0.001                : 84
displacementMedialAxis : Iteration 1
Moving mesh using displacement scaling : min:0.75  max:1
Checking faces in error :
    non-orthogonality > 65  degrees                        : 1317
    faces with face pyramid volume < 1e-13                 : 16
    faces with face-decomposition tet quality < 1e-15      : 678
    faces with concavity > 80  degrees                     : 26
    faces with skewness > 4   (internal) or 20  (boundary) : 0
    faces with interpolation weights (0..1)  < 0.02        : 0
    faces with volume ratio of neighbour cells < 0.01      : 4
    faces with face twist < 0.01                           : 1
    faces on cells with determinant < 0.001                : 60
displacementMedialAxis : Iteration 2
Moving mesh using displacement scaling : min:0.5625  max:1
Checking faces in error :
    non-orthogonality > 65  degrees                        : 291
    faces with face pyramid volume < 1e-13                 : 0
    faces with face-decomposition tet quality < 1e-15      : 315
    faces with concavity > 80  degrees                     : 3
    faces with skewness > 4   (internal) or 20  (boundary) : 0
    faces with interpolation weights (0..1)  < 0.02        : 0
    faces with volume ratio of neighbour cells < 0.01      : 0
    faces with face twist < 0.01                           : 1
    faces on cells with determinant < 0.001                : 18
displacementMedialAxis : Iteration 3
displacementMedialAxis : Displacement scaling for error reduction set to 0.
Moving mesh using displacement scaling : min:0.421875  max:1
Checking faces in error :
    non-orthogonality > 65  degrees                        : 49
    faces with face pyramid volume < 1e-13                 : 2
    faces with face-decomposition tet quality < 1e-15      : 206
    faces with concavity > 80  degrees                     : 0
    faces with skewness > 4   (internal) or 20  (boundary) : 0
    faces with interpolation weights (0..1)  < 0.02        : 0
    faces with volume ratio of neighbour cells < 0.01      : 0
    faces with face twist < 0.01                           : 1
    faces on cells with determinant < 0.001                : 4
displacementMedialAxis : Iteration 4
Moving mesh using displacement scaling : min:0  max:1
Checking faces in error :
    non-orthogonality > 65  degrees                        : 1452
    faces with face pyramid volume < 1e-13                 : 143
    faces with face-decomposition tet quality < 1e-15      : 351
    faces with concavity > 80  degrees                     : 5
    faces with skewness > 4   (internal) or 20  (boundary) : 0
    faces with interpolation weights (0..1)  < 0.02        : 1
    faces with volume ratio of neighbour cells < 0.01      : 1
    faces with face twist < 0.01                           : 4
    faces on cells with determinant < 0.001                : 14
displacementMedialAxis : Iteration 5
Moving mesh using displacement scaling : min:0  max:1
Checking faces in error :
    non-orthogonality > 65  degrees                        : 3636
    faces with face pyramid volume < 1e-13                 : 288
    faces with face-decomposition tet quality < 1e-15      : 570
    faces with concavity > 80  degrees                     : 4
    faces with skewness > 4   (internal) or 20  (boundary) : 0
    faces with interpolation weights (0..1)  < 0.02        : 6
    faces with volume ratio of neighbour cells < 0.01      : 26
    faces with face twist < 0.01                           : 4
    faces on cells with determinant < 0.001                : 48
displacementMedialAxis : Finished moving mesh ...
truncateDisplacement : Unextruded 5 faces due to non-consecutive vertices being extruded.
truncateDisplacement : Unextruded 0 faces due to stringed edges with inconsistent extrusion.
truncateDisplacement : Unextruded 0 faces due to non-consecutive vertices being extruded.
truncateDisplacement : Unextruded 0 faces due to stringed edges with inconsistent extrusion.

Setting up information for layer truncation ...

Checking mesh with layer ...
Checking faces in error :
    non-orthogonality > 65  degrees                        : 3736
    faces with face pyramid volume < 1e-13                 : 267
    faces with face-decomposition tet quality < 1e-15      : 718
    faces with concavity > 80  degrees                     : 4
    faces with skewness > 4   (internal) or 20  (boundary) : 0
    faces with interpolation weights (0..1)  < 0.02        : 6
    faces with volume ratio of neighbour cells < 0.01      : 26
    faces with face twist < 0.01                           : 0
    faces on cells with determinant < 0.001                : 50
Detected 4807 illegal faces (concave, zero area or negative cell pyramid volume)
Extruding 401295 out of 418303 faces (95.934%). Removed extrusion at 301 faces.
Added 6480297 out of 7719483 cells (83.9473%).


Layer addition iteration 5
--------------------------

Determining displacement for added points according to pointNormal ...
Detected 0 points with point normal pointing through faces.
Reset displacement at 0 points to average of surrounding points.

displacementMedialAxis : Smoothing using Medial Axis ...
displacementMedialAxis : Reducing layer thickness at 27470 nodes where thickness to medial axis distance is large 
displacementMedialAxis : Removing isolated regions ...
displacementMedialAxis : Number of isolated points extrusion stopped : 205
displacementMedialAxis : Smoothing field ...
    Iteration 0   residual 0.000203963
displacementMedialAxis : Moving mesh ...
displacementMedialAxis : Iteration 0
Moving mesh using displacement scaling : min:1  max:1
Checking faces in error :
    non-orthogonality > 65  degrees                        : 3507
    faces with face pyramid volume < 1e-13                 : 39
    faces with face-decomposition tet quality < 1e-15      : 1021
    faces with concavity > 80  degrees                     : 62
    faces with skewness > 4   (internal) or 20  (boundary) : 0
    faces with interpolation weights (0..1)  < 0.02        : 0
    faces with volume ratio of neighbour cells < 0.01      : 0
    faces with face twist < 0.01                           : 3
    faces on cells with determinant < 0.001                : 102
displacementMedialAxis : Iteration 1
Moving mesh using displacement scaling : min:0.75  max:1
Checking faces in error :
    non-orthogonality > 65  degrees                        : 1125
    faces with face pyramid volume < 1e-13                 : 1
    faces with face-decomposition tet quality < 1e-15      : 434
    faces with concavity > 80  degrees                     : 16
    faces with skewness > 4   (internal) or 20  (boundary) : 0
    faces with interpolation weights (0..1)  < 0.02        : 0
    faces with volume ratio of neighbour cells < 0.01      : 1
    faces with face twist < 0.01                           : 0
    faces on cells with determinant < 0.001                : 25
displacementMedialAxis : Iteration 2
Moving mesh using displacement scaling : min:0.5625  max:1
Checking faces in error :
    non-orthogonality > 65  degrees                        : 220
    faces with face pyramid volume < 1e-13                 : 4
    faces with face-decomposition tet quality < 1e-15      : 189
    faces with concavity > 80  degrees                     : 4
    faces with skewness > 4   (internal) or 20  (boundary) : 0
    faces with interpolation weights (0..1)  < 0.02        : 0
    faces with volume ratio of neighbour cells < 0.01      : 1
    faces with face twist < 0.01                           : 1
    faces on cells with determinant < 0.001                : 4
displacementMedialAxis : Iteration 3
displacementMedialAxis : Displacement scaling for error reduction set to 0.
Moving mesh using displacement scaling : min:0.421875  max:1
Checking faces in error :
    non-orthogonality > 65  degrees                        : 59
    faces with face pyramid volume < 1e-13                 : 0
    faces with face-decomposition tet quality < 1e-15      : 139
    faces with concavity > 80  degrees                     : 4
    faces with skewness > 4   (internal) or 20  (boundary) : 0
    faces with interpolation weights (0..1)  < 0.02        : 0
    faces with volume ratio of neighbour cells < 0.01      : 0
    faces with face twist < 0.01                           : 2
    faces on cells with determinant < 0.001                : 5
displacementMedialAxis : Iteration 4
Moving mesh using displacement scaling : min:0  max:1
Checking faces in error :
    non-orthogonality > 65  degrees                        : 1435
    faces with face pyramid volume < 1e-13                 : 129
    faces with face-decomposition tet quality < 1e-15      : 259
    faces with concavity > 80  degrees                     : 0
    faces with skewness > 4   (internal) or 20  (boundary) : 0
    faces with interpolation weights (0..1)  < 0.02        : 2
    faces with volume ratio of neighbour cells < 0.01      : 8
    faces with face twist < 0.01                           : 3
    faces on cells with determinant < 0.001                : 8
displacementMedialAxis : Iteration 5
Moving mesh using displacement scaling : min:0  max:1
Checking faces in error :
    non-orthogonality > 65  degrees                        : 3606
    faces with face pyramid volume < 1e-13                 : 294
    faces with face-decomposition tet quality < 1e-15      : 678
    faces with concavity > 80  degrees                     : 8
    faces with skewness > 4   (internal) or 20  (boundary) : 0
    faces with interpolation weights (0..1)  < 0.02        : 4
    faces with volume ratio of neighbour cells < 0.01      : 24
    faces with face twist < 0.01                           : 1
    faces on cells with determinant < 0.001                : 32
displacementMedialAxis : Finished moving mesh ...
truncateDisplacement : Unextruded 10 faces due to non-consecutive vertices being extruded.
truncateDisplacement : Unextruded 0 faces due to stringed edges with inconsistent extrusion.
truncateDisplacement : Unextruded 0 faces due to non-consecutive vertices being extruded.
truncateDisplacement : Unextruded 0 faces due to stringed edges with inconsistent extrusion.

Setting up information for layer truncation ...

Checking mesh with layer ...
Checking faces in error :
    non-orthogonality > 65  degrees                        : 3700
    faces with face pyramid volume < 1e-13                 : 252
    faces with face-decomposition tet quality < 1e-15      : 818
    faces with concavity > 80  degrees                     : 8
    faces with skewness > 4   (internal) or 20  (boundary) : 0
    faces with interpolation weights (0..1)  < 0.02        : 5
    faces with volume ratio of neighbour cells < 0.01      : 24
    faces with face twist < 0.01                           : 0
    faces on cells with determinant < 0.001                : 29
Detected 4836 illegal faces (concave, zero area or negative cell pyramid volume)
Extruding 399954 out of 418303 faces (95.6135%). Removed extrusion at 261 faces.
Added 6457798 out of 7719483 cells (83.6558%).


Layer addition iteration 6
--------------------------

Determining displacement for added points according to pointNormal ...
Detected 0 points with point normal pointing through faces.
Reset displacement at 0 points to average of surrounding points.

displacementMedialAxis : Smoothing using Medial Axis ...
displacementMedialAxis : Reducing layer thickness at 27470 nodes where thickness to medial axis distance is large 
displacementMedialAxis : Removing isolated regions ...
displacementMedialAxis : Number of isolated points extrusion stopped : 148
displacementMedialAxis : Smoothing field ...
    Iteration 0   residual 0.00020699
displacementMedialAxis : Moving mesh ...
displacementMedialAxis : Iteration 0
Moving mesh using displacement scaling : min:1  max:1
Checking faces in error :
    non-orthogonality > 65  degrees                        : 3390
    faces with face pyramid volume < 1e-13                 : 58
    faces with face-decomposition tet quality < 1e-15      : 948
    faces with concavity > 80  degrees                     : 60
    faces with skewness > 4   (internal) or 20  (boundary) : 0
    faces with interpolation weights (0..1)  < 0.02        : 0
    faces with volume ratio of neighbour cells < 0.01      : 3
    faces with face twist < 0.01                           : 5
    faces on cells with determinant < 0.001                : 79
displacementMedialAxis : Iteration 1
Moving mesh using displacement scaling : min:0.75  max:1
Checking faces in error :
    non-orthogonality > 65  degrees                        : 1061
    faces with face pyramid volume < 1e-13                 : 8
    faces with face-decomposition tet quality < 1e-15      : 406
    faces with concavity > 80  degrees                     : 17
    faces with skewness > 4   (internal) or 20  (boundary) : 0
    faces with interpolation weights (0..1)  < 0.02        : 3
    faces with volume ratio of neighbour cells < 0.01      : 0
    faces with face twist < 0.01                           : 1
    faces on cells with determinant < 0.001                : 21
displacementMedialAxis : Iteration 2
Moving mesh using displacement scaling : min:0.5625  max:1
Checking faces in error :
    non-orthogonality > 65  degrees                        : 203
    faces with face pyramid volume < 1e-13                 : 0
    faces with face-decomposition tet quality < 1e-15      : 177
    faces with concavity > 80  degrees                     : 2
    faces with skewness > 4   (internal) or 20  (boundary) : 0
    faces with interpolation weights (0..1)  < 0.02        : 0
    faces with volume ratio of neighbour cells < 0.01      : 0
    faces with face twist < 0.01                           : 0
    faces on cells with determinant < 0.001                : 7
displacementMedialAxis : Iteration 3
displacementMedialAxis : Displacement scaling for error reduction set to 0.
Moving mesh using displacement scaling : min:0.421875  max:1
Checking faces in error :
    non-orthogonality > 65  degrees                        : 46
    faces with face pyramid volume < 1e-13                 : 1
    faces with face-decomposition tet quality < 1e-15      : 124
    faces with concavity > 80  degrees                     : 0
    faces with skewness > 4   (internal) or 20  (boundary) : 0
    faces with interpolation weights (0..1)  < 0.02        : 0
    faces with volume ratio of neighbour cells < 0.01      : 0
    faces with face twist < 0.01                           : 1
    faces on cells with determinant < 0.001                : 7
displacementMedialAxis : Iteration 4
Moving mesh using displacement scaling : min:0  max:1
Checking faces in error :
    non-orthogonality > 65  degrees                        : 1002
    faces with face pyramid volume < 1e-13                 : 91
    faces with face-decomposition tet quality < 1e-15      : 157
    faces with concavity > 80  degrees                     : 0
    faces with skewness > 4   (internal) or 20  (boundary) : 0
    faces with interpolation weights (0..1)  < 0.02        : 2
    faces with volume ratio of neighbour cells < 0.01      : 9
    faces with face twist < 0.01                           : 0
    faces on cells with determinant < 0.001                : 11
displacementMedialAxis : Iteration 5
Moving mesh using displacement scaling : min:0  max:1
Checking faces in error :
    non-orthogonality > 65  degrees                        : 2811
    faces with face pyramid volume < 1e-13                 : 276
    faces with face-decomposition tet quality < 1e-15      : 441
    faces with concavity > 80  degrees                     : 1
    faces with skewness > 4   (internal) or 20  (boundary) : 0
    faces with interpolation weights (0..1)  < 0.02        : 8
    faces with volume ratio of neighbour cells < 0.01      : 13
    faces with face twist < 0.01                           : 1
    faces on cells with determinant < 0.001                : 21
displacementMedialAxis : Finished moving mesh ...
truncateDisplacement : Unextruded 9 faces due to non-consecutive vertices being extruded.
truncateDisplacement : Unextruded 0 faces due to stringed edges with inconsistent extrusion.
truncateDisplacement : Unextruded 0 faces due to non-consecutive vertices being extruded.
truncateDisplacement : Unextruded 0 faces due to stringed edges with inconsistent extrusion.

Setting up information for layer truncation ...

Checking mesh with layer ...
Checking faces in error :
    non-orthogonality > 65  degrees                        : 2878
    faces with face pyramid volume < 1e-13                 : 237
    faces with face-decomposition tet quality < 1e-15      : 515
    faces with concavity > 80  degrees                     : 1
    faces with skewness > 4   (internal) or 20  (boundary) : 0
    faces with interpolation weights (0..1)  < 0.02        : 9
    faces with volume ratio of neighbour cells < 0.01      : 13
    faces with face twist < 0.01                           : 0
    faces on cells with determinant < 0.001                : 19
Detected 3672 illegal faces (concave, zero area or negative cell pyramid volume)
Extruding 399026 out of 418303 faces (95.3916%). Removed extrusion at 193 faces.
Added 6418328 out of 7719483 cells (83.1445%).


Layer addition iteration 7
--------------------------

Determining displacement for added points according to pointNormal ...
Detected 0 points with point normal pointing through faces.
Reset displacement at 0 points to average of surrounding points.

displacementMedialAxis : Smoothing using Medial Axis ...
displacementMedialAxis : Reducing layer thickness at 27470 nodes where thickness to medial axis distance is large 
displacementMedialAxis : Removing isolated regions ...
displacementMedialAxis : Number of isolated points extrusion stopped : 181
displacementMedialAxis : Smoothing field ...
    Iteration 0   residual 0.000208278
displacementMedialAxis : Moving mesh ...
displacementMedialAxis : Iteration 0
Moving mesh using displacement scaling : min:1  max:1
Checking faces in error :
    non-orthogonality > 65  degrees                        : 3277
    faces with face pyramid volume < 1e-13                 : 48
    faces with face-decomposition tet quality < 1e-15      : 815
    faces with concavity > 80  degrees                     : 58
    faces with skewness > 4   (internal) or 20  (boundary) : 0
    faces with interpolation weights (0..1)  < 0.02        : 0
    faces with volume ratio of neighbour cells < 0.01      : 3
    faces with face twist < 0.01                           : 2
    faces on cells with determinant < 0.001                : 74
displacementMedialAxis : Iteration 1
Moving mesh using displacement scaling : min:0.75  max:1
Checking faces in error :
    non-orthogonality > 65  degrees                        : 1053
    faces with face pyramid volume < 1e-13                 : 3
    faces with face-decomposition tet quality < 1e-15      : 328
    faces with concavity > 80  degrees                     : 15
    faces with skewness > 4   (internal) or 20  (boundary) : 0
    faces with interpolation weights (0..1)  < 0.02        : 0
    faces with volume ratio of neighbour cells < 0.01      : 0
    faces with face twist < 0.01                           : 1
    faces on cells with determinant < 0.001                : 54
displacementMedialAxis : Iteration 2
Moving mesh using displacement scaling : min:0.5625  max:1
Checking faces in error :
    non-orthogonality > 65  degrees                        : 180
    faces with face pyramid volume < 1e-13                 : 2
    faces with face-decomposition tet quality < 1e-15      : 107
    faces with concavity > 80  degrees                     : 0
    faces with skewness > 4   (internal) or 20  (boundary) : 0
    faces with interpolation weights (0..1)  < 0.02        : 0
    faces with volume ratio of neighbour cells < 0.01      : 0
    faces with face twist < 0.01                           : 0
    faces on cells with determinant < 0.001                : 7
displacementMedialAxis : Iteration 3
displacementMedialAxis : Displacement scaling for error reduction set to 0.
Moving mesh using displacement scaling : min:0.421875  max:1
Checking faces in error :
    non-orthogonality > 65  degrees                        : 41
    faces with face pyramid volume < 1e-13                 : 0
    faces with face-decomposition tet quality < 1e-15      : 51
    faces with concavity > 80  degrees                     : 0
    faces with skewness > 4   (internal) or 20  (boundary) : 0
    faces with interpolation weights (0..1)  < 0.02        : 0
    faces with volume ratio of neighbour cells < 0.01      : 0
    faces with face twist < 0.01                           : 0
    faces on cells with determinant < 0.001                : 4
displacementMedialAxis : Iteration 4
Moving mesh using displacement scaling : min:0  max:1
Checking faces in error :
    non-orthogonality > 65  degrees                        : 1066
    faces with face pyramid volume < 1e-13                 : 75
    faces with face-decomposition tet quality < 1e-15      : 162
    faces with concavity > 80  degrees                     : 0
    faces with skewness > 4   (internal) or 20  (boundary) : 0
    faces with interpolation weights (0..1)  < 0.02        : 0
    faces with volume ratio of neighbour cells < 0.01      : 11
    faces with face twist < 0.01                           : 0
    faces on cells with determinant < 0.001                : 26
displacementMedialAxis : Iteration 5
Moving mesh using displacement scaling : min:0  max:1
Checking faces in error :
    non-orthogonality > 65  degrees                        : 3026
    faces with face pyramid volume < 1e-13                 : 314
    faces with face-decomposition tet quality < 1e-15      : 488
    faces with concavity > 80  degrees                     : 1
    faces with skewness > 4   (internal) or 20  (boundary) : 0
    faces with interpolation weights (0..1)  < 0.02        : 6
    faces with volume ratio of neighbour cells < 0.01      : 13
    faces with face twist < 0.01                           : 2
    faces on cells with determinant < 0.001                : 59
displacementMedialAxis : Finished moving mesh ...
truncateDisplacement : Unextruded 3 faces due to non-consecutive vertices being extruded.
truncateDisplacement : Unextruded 0 faces due to stringed edges with inconsistent extrusion.
truncateDisplacement : Unextruded 0 faces due to non-consecutive vertices being extruded.
truncateDisplacement : Unextruded 0 faces due to stringed edges with inconsistent extrusion.

Setting up information for layer truncation ...

Checking mesh with layer ...
Checking faces in error :
    non-orthogonality > 65  degrees                        : 3096
    faces with face pyramid volume < 1e-13                 : 264
    faces with face-decomposition tet quality < 1e-15      : 536
    faces with concavity > 80  degrees                     : 1
    faces with skewness > 4   (internal) or 20  (boundary) : 0
    faces with interpolation weights (0..1)  < 0.02        : 12
    faces with volume ratio of neighbour cells < 0.01      : 13
    faces with face twist < 0.01                           : 2
    faces on cells with determinant < 0.001                : 70
Detected 3994 illegal faces (concave, zero area or negative cell pyramid volume)
Extruding 398262 out of 418303 faces (95.209%). Removed extrusion at 178 faces.
Added 6406433 out of 7719483 cells (82.9904%).


Layer addition iteration 8
--------------------------

Determining displacement for added points according to pointNormal ...
Detected 0 points with point normal pointing through faces.
Reset displacement at 0 points to average of surrounding points.

displacementMedialAxis : Smoothing using Medial Axis ...
displacementMedialAxis : Reducing layer thickness at 27470 nodes where thickness to medial axis distance is large 
displacementMedialAxis : Removing isolated regions ...
displacementMedialAxis : Number of isolated points extrusion stopped : 81
displacementMedialAxis : Smoothing field ...
    Iteration 0   residual 0.000210358
displacementMedialAxis : Moving mesh ...
displacementMedialAxis : Iteration 0
Moving mesh using displacement scaling : min:1  max:1
Checking faces in error :
    non-orthogonality > 65  degrees                        : 3300
    faces with face pyramid volume < 1e-13                 : 31
    faces with face-decomposition tet quality < 1e-15      : 794
    faces with concavity > 80  degrees                     : 63
    faces with skewness > 4   (internal) or 20  (boundary) : 0
    faces with interpolation weights (0..1)  < 0.02        : 1
    faces with volume ratio of neighbour cells < 0.01      : 4
    faces with face twist < 0.01                           : 3
    faces on cells with determinant < 0.001                : 61
displacementMedialAxis : Iteration 1
Moving mesh using displacement scaling : min:0.75  max:1
Checking faces in error :
    non-orthogonality > 65  degrees                        : 1072
    faces with face pyramid volume < 1e-13                 : 1
    faces with face-decomposition tet quality < 1e-15      : 295
    faces with concavity > 80  degrees                     : 17
    faces with skewness > 4   (internal) or 20  (boundary) : 0
    faces with interpolation weights (0..1)  < 0.02        : 0
    faces with volume ratio of neighbour cells < 0.01      : 0
    faces with face twist < 0.01                           : 0
    faces on cells with determinant < 0.001                : 35
displacementMedialAxis : Iteration 2
Moving mesh using displacement scaling : min:0.5625  max:1
Checking faces in error :
    non-orthogonality > 65  degrees                        : 191
    faces with face pyramid volume < 1e-13                 : 2
    faces with face-decomposition tet quality < 1e-15      : 96
    faces with concavity > 80  degrees                     : 1
    faces with skewness > 4   (internal) or 20  (boundary) : 0
    faces with interpolation weights (0..1)  < 0.02        : 0
    faces with volume ratio of neighbour cells < 0.01      : 0
    faces with face twist < 0.01                           : 0
    faces on cells with determinant < 0.001                : 0
displacementMedialAxis : Iteration 3
displacementMedialAxis : Displacement scaling for error reduction set to 0.
Moving mesh using displacement scaling : min:0.421875  max:1
Checking faces in error :
    non-orthogonality > 65  degrees                        : 39
    faces with face pyramid volume < 1e-13                 : 0
    faces with face-decomposition tet quality < 1e-15      : 41
    faces with concavity > 80  degrees                     : 0
    faces with skewness > 4   (internal) or 20  (boundary) : 0
    faces with interpolation weights (0..1)  < 0.02        : 0
    faces with volume ratio of neighbour cells < 0.01      : 0
    faces with face twist < 0.01                           : 0
    faces on cells with determinant < 0.001                : 4
displacementMedialAxis : Iteration 4
Moving mesh using displacement scaling : min:0  max:1
Checking faces in error :
    non-orthogonality > 65  degrees                        : 707
    faces with face pyramid volume < 1e-13                 : 66
    faces with face-decomposition tet quality < 1e-15      : 108
    faces with concavity > 80  degrees                     : 0
    faces with skewness > 4   (internal) or 20  (boundary) : 0
    faces with interpolation weights (0..1)  < 0.02        : 0
    faces with volume ratio of neighbour cells < 0.01      : 6
    faces with face twist < 0.01                           : 0
    faces on cells with determinant < 0.001                : 14
displacementMedialAxis : Iteration 5
Moving mesh using displacement scaling : min:0  max:1
Checking faces in error :
    non-orthogonality > 65  degrees                        : 1866
    faces with face pyramid volume < 1e-13                 : 166
    faces with face-decomposition tet quality < 1e-15      : 351
    faces with concavity > 80  degrees                     : 3
    faces with skewness > 4   (internal) or 20  (boundary) : 0
    faces with interpolation weights (0..1)  < 0.02        : 13
    faces with volume ratio of neighbour cells < 0.01      : 10
    faces with face twist < 0.01                           : 0
    faces on cells with determinant < 0.001                : 75
displacementMedialAxis : Finished moving mesh ...
truncateDisplacement : Unextruded 4 faces due to non-consecutive vertices being extruded.
truncateDisplacement : Unextruded 0 faces due to stringed edges with inconsistent extrusion.
[...]
Extruding 397226 out of 418303 faces (94.9613%). Removed extrusion at 4 faces.
Added 6364204 out of 7719483 cells (82.4434%).


Layer addition iteration 15
--------------------------

Determining displacement for added points according to pointNormal ...
Detected 0 points with point normal pointing through faces.
Reset displacement at 0 points to average of surrounding points.

displacementMedialAxis : Smoothing using Medial Axis ...
displacementMedialAxis : Reducing layer thickness at 27470 nodes where thickness to medial axis distance is large 
displacementMedialAxis : Removing isolated regions ...
displacementMedialAxis : Number of isolated points extrusion stopped : 4
displacementMedialAxis : Smoothing field ...
    Iteration 0   residual 0.000214418
displacementMedialAxis : Moving mesh ...
displacementMedialAxis : Iteration 0
Moving mesh using displacement scaling : min:1  max:1
Checking faces in error :
    non-orthogonality > 65  degrees                        : 3119
    faces with face pyramid volume < 1e-13                 : 16
    faces with face-decomposition tet quality < 1e-15      : 612
    faces with concavity > 80  degrees                     : 59
    faces with skewness > 4   (internal) or 20  (boundary) : 0
    faces with interpolation weights (0..1)  < 0.02        : 0
    faces with volume ratio of neighbour cells < 0.01      : 2
    faces with face twist < 0.01                           : 2
    faces on cells with determinant < 0.001                : 37
displacementMedialAxis : Iteration 1
Moving mesh using displacement scaling : min:0.75  max:1
Checking faces in error :
    non-orthogonality > 65  degrees                        : 944
    faces with face pyramid volume < 1e-13                 : 0
    faces with face-decomposition tet quality < 1e-15      : 194
    faces with concavity > 80  degrees                     : 13
    faces with skewness > 4   (internal) or 20  (boundary) : 0
    faces with interpolation weights (0..1)  < 0.02        : 0
    faces with volume ratio of neighbour cells < 0.01      : 0
    faces with face twist < 0.01                           : 0
    faces on cells with determinant < 0.001                : 2
displacementMedialAxis : Iteration 2
Moving mesh using displacement scaling : min:0.5625  max:1
Checking faces in error :
    non-orthogonality > 65  degrees                        : 102
    faces with face pyramid volume < 1e-13                 : 0
    faces with face-decomposition tet quality < 1e-15      : 46
    faces with concavity > 80  degrees                     : 0
    faces with skewness > 4   (internal) or 20  (boundary) : 0
    faces with interpolation weights (0..1)  < 0.02        : 0
    faces with volume ratio of neighbour cells < 0.01      : 0
    faces with face twist < 0.01                           : 0
    faces on cells with determinant < 0.001                : 0
displacementMedialAxis : Iteration 3
displacementMedialAxis : Displacement scaling for error reduction set to 0.
Moving mesh using displacement scaling : min:0.421875  max:1
Checking faces in error :
    non-orthogonality > 65  degrees                        : 4
    faces with face pyramid volume < 1e-13                 : 0
    faces with face-decomposition tet quality < 1e-15      : 3
    faces with concavity > 80  degrees                     : 0
    faces with skewness > 4   (internal) or 20  (boundary) : 0
    faces with interpolation weights (0..1)  < 0.02        : 0
    faces with volume ratio of neighbour cells < 0.01      : 0
    faces with face twist < 0.01                           : 0
    faces on cells with determinant < 0.001                : 0
displacementMedialAxis : Iteration 4
Moving mesh using displacement scaling : min:0  max:1
Checking faces in error :
    non-orthogonality > 65  degrees                        : 183
    faces with face pyramid volume < 1e-13                 : 13
    faces with face-decomposition tet quality < 1e-15      : 43
    faces with concavity > 80  degrees                     : 0
    faces with skewness > 4   (internal) or 20  (boundary) : 0
    faces with interpolation weights (0..1)  < 0.02        : 0
    faces with volume ratio of neighbour cells < 0.01      : 0
    faces with face twist < 0.01                           : 0
    faces on cells with determinant < 0.001                : 2
displacementMedialAxis : Iteration 5
Moving mesh using displacement scaling : min:0  max:1
Checking faces in error :
    non-orthogonality > 65  degrees                        : 814
    faces with face pyramid volume < 1e-13                 : 54
    faces with face-decomposition tet quality < 1e-15      : 165
    faces with concavity > 80  degrees                     : 0
    faces with skewness > 4   (internal) or 20  (boundary) : 0
    faces with interpolation weights (0..1)  < 0.02        : 4
    faces with volume ratio of neighbour cells < 0.01      : 7
    faces with face twist < 0.01                           : 0
    faces on cells with determinant < 0.001                : 0
displacementMedialAxis : Finished moving mesh ...
truncateDisplacement : Unextruded 0 faces due to non-consecutive vertices being extruded.
truncateDisplacement : Unextruded 0 faces due to stringed edges with inconsistent extrusion.

Setting up information for layer truncation ...

Checking mesh with layer ...
Checking faces in error :
    non-orthogonality > 65  degrees                        : 815
    faces with face pyramid volume < 1e-13                 : 54
    faces with face-decomposition tet quality < 1e-15      : 168
    faces with concavity > 80  degrees                     : 0
    faces with skewness > 4   (internal) or 20  (boundary) : 0
    faces with interpolation weights (0..1)  < 0.02        : 4
    faces with volume ratio of neighbour cells < 0.01      : 7
    faces with face twist < 0.01                           : 0
    faces on cells with determinant < 0.001                : 0
Detected 1048 illegal faces (concave, zero area or negative cell pyramid volume)
Extruding 397213 out of 418303 faces (94.9582%). Removed extrusion at 4 faces.
Added 6363498 out of 7719483 cells (82.4343%).


Layer addition iteration 16
--------------------------

Determining displacement for added points according to pointNormal ...
Detected 0 points with point normal pointing through faces.
Reset displacement at 0 points to average of surrounding points.

displacementMedialAxis : Smoothing using Medial Axis ...
displacementMedialAxis : Reducing layer thickness at 27470 nodes where thickness to medial axis distance is large 
displacementMedialAxis : Removing isolated regions ...
displacementMedialAxis : Number of isolated points extrusion stopped : 9
displacementMedialAxis : Smoothing field ...
    Iteration 0   residual 0.000214756
displacementMedialAxis : Moving mesh ...
displacementMedialAxis : Iteration 0
Moving mesh using displacement scaling : min:1  max:1
Checking faces in error :
    non-orthogonality > 65  degrees                        : 3146
    faces with face pyramid volume < 1e-13                 : 16
    faces with face-decomposition tet quality < 1e-15      : 627
    faces with concavity > 80  degrees                     : 61
    faces with skewness > 4   (internal) or 20  (boundary) : 0
    faces with interpolation weights (0..1)  < 0.02        : 0
    faces with volume ratio of neighbour cells < 0.01      : 2
    faces with face twist < 0.01                           : 2
    faces on cells with determinant < 0.001                : 37
displacementMedialAxis : Iteration 1
Moving mesh using displacement scaling : min:0.75  max:1
Checking faces in error :
    non-orthogonality > 65  degrees                        : 944
    faces with face pyramid volume < 1e-13                 : 0
    faces with face-decomposition tet quality < 1e-15      : 199
    faces with concavity > 80  degrees                     : 13
    faces with skewness > 4   (internal) or 20  (boundary) : 0
    faces with interpolation weights (0..1)  < 0.02        : 0
    faces with volume ratio of neighbour cells < 0.01      : 0
    faces with face twist < 0.01                           : 0
    faces on cells with determinant < 0.001                : 2
displacementMedialAxis : Iteration 2
Moving mesh using displacement scaling : min:0.5625  max:1
Checking faces in error :
    non-orthogonality > 65  degrees                        : 106
    faces with face pyramid volume < 1e-13                 : 0
    faces with face-decomposition tet quality < 1e-15      : 50
    faces with concavity > 80  degrees                     : 0
    faces with skewness > 4   (internal) or 20  (boundary) : 0
    faces with interpolation weights (0..1)  < 0.02        : 0
    faces with volume ratio of neighbour cells < 0.01      : 0
    faces with face twist < 0.01                           : 0
    faces on cells with determinant < 0.001                : 0
displacementMedialAxis : Iteration 3
displacementMedialAxis : Displacement scaling for error reduction set to 0.
Moving mesh using displacement scaling : min:0.421875  max:1
Checking faces in error :
    non-orthogonality > 65  degrees                        : 6
    faces with face pyramid volume < 1e-13                 : 0
    faces with face-decomposition tet quality < 1e-15      : 4
    faces with concavity > 80  degrees                     : 0
    faces with skewness > 4   (internal) or 20  (boundary) : 0
    faces with interpolation weights (0..1)  < 0.02        : 0
    faces with volume ratio of neighbour cells < 0.01      : 0
    faces with face twist < 0.01                           : 0
    faces on cells with determinant < 0.001                : 0
displacementMedialAxis : Iteration 4
Moving mesh using displacement scaling : min:0  max:1
Checking faces in error :
    non-orthogonality > 65  degrees                        : 191
    faces with face pyramid volume < 1e-13                 : 14
    faces with face-decomposition tet quality < 1e-15      : 41
    faces with concavity > 80  degrees                     : 0
    faces with skewness > 4   (internal) or 20  (boundary) : 0
    faces with interpolation weights (0..1)  < 0.02        : 0
    faces with volume ratio of neighbour cells < 0.01      : 0
    faces with face twist < 0.01                           : 0
    faces on cells with determinant < 0.001                : 1
displacementMedialAxis : Iteration 5
Moving mesh using displacement scaling : min:0  max:1
Checking faces in error :
    non-orthogonality > 65  degrees                        : 851
    faces with face pyramid volume < 1e-13                 : 62
    faces with face-decomposition tet quality < 1e-15      : 174
    faces with concavity > 80  degrees                     : 0
    faces with skewness > 4   (internal) or 20  (boundary) : 0
    faces with interpolation weights (0..1)  < 0.02        : 4
    faces with volume ratio of neighbour cells < 0.01      : 7
    faces with face twist < 0.01                           : 0
    faces on cells with determinant < 0.001                : 0
displacementMedialAxis : Finished moving mesh ...
truncateDisplacement : Unextruded 0 faces due to non-consecutive vertices being extruded.
truncateDisplacement : Unextruded 0 faces due to stringed edges with inconsistent extrusion.

Setting up information for layer truncation ...

Checking mesh with layer ...
Checking faces in error :
    non-orthogonality > 65  degrees                        : 851
    faces with face pyramid volume < 1e-13                 : 62
    faces with face-decomposition tet quality < 1e-15      : 175
    faces with concavity > 80  degrees                     : 0
    faces with skewness > 4   (internal) or 20  (boundary) : 0
    faces with interpolation weights (0..1)  < 0.02        : 4
    faces with volume ratio of neighbour cells < 0.01      : 7
    faces with face twist < 0.01                           : 0
    faces on cells with determinant < 0.001                : 0
Detected 1099 illegal faces (concave, zero area or negative cell pyramid volume)
Extruding 397197 out of 418303 faces (94.9544%). Removed extrusion at 1 faces.
Added 6361771 out of 7719483 cells (82.4119%).


Layer addition iteration 17
--------------------------

Determining displacement for added points according to pointNormal ...
Detected 0 points with point normal pointing through faces.
Reset displacement at 0 points to average of surrounding points.

displacementMedialAxis : Smoothing using Medial Axis ...
displacementMedialAxis : Reducing layer thickness at 27470 nodes where thickness to medial axis distance is large 
displacementMedialAxis : Removing isolated regions ...
displacementMedialAxis : Number of isolated points extrusion stopped : 18
displacementMedialAxis : Smoothing field ...
    Iteration 0   residual 0.000214907
displacementMedialAxis : Moving mesh ...
displacementMedialAxis : Iteration 0
Moving mesh using displacement scaling : min:1  max:1
Checking faces in error :
    non-orthogonality > 65  degrees                        : 3135
    faces with face pyramid volume < 1e-13                 : 16
    faces with face-decomposition tet quality < 1e-15      : 621
    faces with concavity > 80  degrees                     : 59
    faces with skewness > 4   (internal) or 20  (boundary) : 0
    faces with interpolation weights (0..1)  < 0.02        : 0
    faces with volume ratio of neighbour cells < 0.01      : 2
    faces with face twist < 0.01                           : 2
    faces on cells with determinant < 0.001                : 37
displacementMedialAxis : Iteration 1
Moving mesh using displacement scaling : min:0.75  max:1
Checking faces in error :
    non-orthogonality > 65  degrees                        : 948
    faces with face pyramid volume < 1e-13                 : 0
    faces with face-decomposition tet quality < 1e-15      : 193
    faces with concavity > 80  degrees                     : 13
    faces with skewness > 4   (internal) or 20  (boundary) : 0
    faces with interpolation weights (0..1)  < 0.02        : 0
    faces with volume ratio of neighbour cells < 0.01      : 0
    faces with face twist < 0.01                           : 0
    faces on cells with determinant < 0.001                : 2
displacementMedialAxis : Iteration 2
Moving mesh using displacement scaling : min:0.5625  max:1
Checking faces in error :
    non-orthogonality > 65  degrees                        : 107
    faces with face pyramid volume < 1e-13                 : 0
    faces with face-decomposition tet quality < 1e-15      : 45
    faces with concavity > 80  degrees                     : 0
    faces with skewness > 4   (internal) or 20  (boundary) : 0
    faces with interpolation weights (0..1)  < 0.02        : 0
    faces with volume ratio of neighbour cells < 0.01      : 0
    faces with face twist < 0.01                           : 0
    faces on cells with determinant < 0.001                : 0
displacementMedialAxis : Iteration 3
displacementMedialAxis : Displacement scaling for error reduction set to 0.
Moving mesh using displacement scaling : min:0.421875  max:1
Checking faces in error :
    non-orthogonality > 65  degrees                        : 4
    faces with face pyramid volume < 1e-13                 : 0
    faces with face-decomposition tet quality < 1e-15      : 0
    faces with concavity > 80  degrees                     : 0
    faces with skewness > 4   (internal) or 20  (boundary) : 0
    faces with interpolation weights (0..1)  < 0.02        : 0
    faces with volume ratio of neighbour cells < 0.01      : 0
    faces with face twist < 0.01                           : 0
    faces on cells with determinant < 0.001                : 0
displacementMedialAxis : Iteration 4
Moving mesh using displacement scaling : min:0  max:1
Checking faces in error :
    non-orthogonality > 65  degrees                        : 176
    faces with face pyramid volume < 1e-13                 : 13
    faces with face-decomposition tet quality < 1e-15      : 39
    faces with concavity > 80  degrees                     : 0
    faces with skewness > 4   (internal) or 20  (boundary) : 0
    faces with interpolation weights (0..1)  < 0.02        : 0
    faces with volume ratio of neighbour cells < 0.01      : 0
    faces with face twist < 0.01                           : 0
    faces on cells with determinant < 0.001                : 1
displacementMedialAxis : Iteration 5
Moving mesh using displacement scaling : min:0  max:1
Checking faces in error :
    non-orthogonality > 65  degrees                        : 807
    faces with face pyramid volume < 1e-13                 : 54
    faces with face-decomposition tet quality < 1e-15      : 160
    faces with concavity > 80  degrees                     : 0
    faces with skewness > 4   (internal) or 20  (boundary) : 0
    faces with interpolation weights (0..1)  < 0.02        : 4
    faces with volume ratio of neighbour cells < 0.01      : 7
    faces with face twist < 0.01                           : 0
    faces on cells with determinant < 0.001                : 0
displacementMedialAxis : Finished moving mesh ...
truncateDisplacement : Unextruded 0 faces due to non-consecutive vertices being extruded.
truncateDisplacement : Unextruded 0 faces due to stringed edges with inconsistent extrusion.

Setting up information for layer truncation ...

Checking mesh with layer ...
Checking faces in error :
    non-orthogonality > 65  degrees                        : 807
    faces with face pyramid volume < 1e-13                 : 54
    faces with face-decomposition tet quality < 1e-15      : 160
    faces with concavity > 80  degrees                     : 0
    faces with skewness > 4   (internal) or 20  (boundary) : 0
    faces with interpolation weights (0..1)  < 0.02        : 4
    faces with volume ratio of neighbour cells < 0.01      : 7
    faces with face twist < 0.01                           : 0
    faces on cells with determinant < 0.001                : 0
Detected 1032 illegal faces (concave, zero area or negative cell pyramid volume)
Extruding 397178 out of 418303 faces (94.9498%). Removed extrusion at 0 faces.
Added 6359547 out of 7719483 cells (82.3831%).
Edge intersection testing:
    Number of edges             : 39472868
    Number of edges to retest   : 0
    Number of intersected edges : 6460030

Doing final balancing
---------------------

Writing 6359547 added cells to cellSet addedCells
Writing 5959755 faces inside added layer to faceSet layerFaces

Writing fields with layer information:
    nSurfaceLayers    : actual number of layers
    thickness         : overall layer thickness
    thicknessFraction : overall layer thickness (fraction of desired thickness)


patch     faces    layers   overall thickness
                            [m]       [%]
-----     -----    ------   ---       ---
lowerWall 62640    4        0.396     92.1    
gtsModel  355663   17.2     0.0536    88      

Layer mesh : cells:12926775  faces:39472868  points:13631166
Cells per refinement level:
    0	830120
    1	526240
    2	172592
    3	2320540
    4	3226705
    5	912286
    6	4938292
Writing mesh to time constant
Wrote mesh in = 534.95 s.
Layers added in = 534.95 s.
Checking final mesh ...
Checking faces in error :
    non-orthogonality > 65  degrees                        : 799
    faces with face pyramid volume < 1e-13                 : 54
    faces with face-decomposition tet quality < 1e-15      : 160
    faces with concavity > 80  degrees                     : 0
    faces with skewness > 4   (internal) or 20  (boundary) : 0
    faces with interpolation weights (0..1)  < 0.02        : 4
    faces with volume ratio of neighbour cells < 0.01      : 7
    faces with face twist < 0.01                           : 0
    faces on cells with determinant < 0.001                : 0
Finished meshing with 1024 illegal faces (concave, zero area or negative cell pyramid volume)
Finished meshing in = 542.75 s.
End

Finalising parallel run
