/*---------------------------------------------------------------------------*\
| =========                 |                                                 |
| \\      /  F ield         | OpenFOAM: The Open Source CFD Toolbox           |
|  \\    /   O peration     | Version:  v1812                                 |
|   \\  /    A nd           | Web:      www.OpenFOAM.com                      |
|    \\/     M anipulation  |                                                 |
\*---------------------------------------------------------------------------*/
Build  : v1812 OPENFOAM=1812
Arch   : "LSB;label=32;scalar=64"
Exec   : checkMesh -parallel -decomposeParDict system/decomposeParDict.60
Date   : Mar 21 2023
Time   : 01:28:06
Host   : compute-0-17.local
PID    : 73571
I/O    : uncollated
Case   : /share/storage/finzeo/Mallas/test/GTS_ofcom4
nProcs : 60
Hosts  :
(
    (compute-0-17.local 20)
    (compute-0-18.local 20)
    (compute-0-19.local 20)
)
Pstream initialized with:
    floatTransfer      : 0
    nProcsSimpleSum    : 0
    commsType          : nonBlocking
    polling iterations : 0
trapFpe: Floating point exception trapping enabled (FOAM_SIGFPE).
fileModificationChecking : Monitoring run-time modified files using timeStampMaster (fileModificationSkew 10)
allowSystemOperations : Allowing user-supplied system call operations

// * * * * * * * * * * * * * * * * * * * * * * * * * * * * * * * * * * * * * //
Create time

Create mesh for time = 1

Time = 1

Mesh stats
    points:           15517241
    faces:            41523559
    internal faces:   38112801
    cells:            13024422
    faces per cell:   6.11439
    boundary patches: 15
    point zones:      0
    face zones:       0
    cell zones:       0

Overall number of cells of each type:
    hexahedra:     12509238
    prisms:        0
    wedges:        0
    pyramids:      0
    tet wedges:    0
    tetrahedra:    0
    polyhedra:     515184
    Breakdown of polyhedra by number of faces:
        faces   number of cells
            6   78738
            8   1857
            9   376237
           10   20
           11   21
           12   55882
           13   2
           15   2404
           18   23

Checking topology...
    Boundary definition OK.
    Cell to face addressing OK.
    Point usage OK.
    Upper triangular ordering OK.
    Face vertices OK.
    Number of regions: 1 (OK).

Checking basic patch addressing...
                   Patch    Faces   Points
            frontAndBack        0        0
                   inlet     1120     1365
                  outlet     6982     7671
               lowerWall        0        0
               upperWall        0        0
                gtsModel   930656   946563
                    left     4312     4929
                   right     4312     4929
                     top     6160     6996
                   floor    88066    92675

Checking basic faceZone addressing...
    No faceZones found.

Checking basic cellZone addressing...
    No cellZones found.

Checking geometry...
    Overall domain bounding box (-7.33423 -1.524 -0.0762) (4.40057 1.524 2.0574)
    Mesh has 3 geometric (non-empty/wedge) directions (1 1 1)
    Mesh has 3 solution (non-empty) directions (1 1 1)
    Boundary openness (1.46597e-15 -5.91113e-15 -1.68562e-14) OK.
    Max cell openness = 3.74524e-16 OK.
    Max aspect ratio = 1 OK.
    Minimum face area = 1.41759e-06. Maximum face area = 0.00580644.  Face area magnitudes OK.
    Min volume = 1.68782e-09. Max volume = 0.000442451.  Total volume = 75.7963.  Cell volumes OK.
    Mesh non-orthogonality Max: 25.2394 average: 5.62913
    Non-orthogonality check OK.
    Face pyramids OK.
    Max skewness = 1 OK.
    Coupled point location match (average 0) OK.

Mesh OK.

--> FOAM Warning : 
    From function virtual Foam::polyMesh::readUpdateState Foam::polyMesh::readUpdate()
    in file meshes/polyMesh/polyMeshIO.C at line 209
    Number of patches has changed.  This may have unexpected consequences.  Proceed with care.
Time = 2

Mesh stats
    points:           15489677
    faces:            41494825
    internal faces:   38112801
    cells:            13024422
    faces per cell:   6.11218
    boundary patches: 12
    point zones:      0
    face zones:       0
    cell zones:       0

Overall number of cells of each type:
    hexahedra:     12484082
    prisms:        22663
    wedges:        0
    pyramids:      0
    tet wedges:    46
    tetrahedra:    0
    polyhedra:     517631
    Breakdown of polyhedra by number of faces:
        faces   number of cells
            4   1321
            5   1220
            6   78678
            7   1899
            8   27
            9   376161
           10   13
           11   1
           12   55882
           13   2
           15   2404
           18   23

Checking topology...
    Boundary definition OK.
    Cell to face addressing OK.
    Point usage OK.
    Upper triangular ordering OK.
    Face vertices OK.
    Number of regions: 1 (OK).

Checking basic patch addressing...
                   Patch    Faces   Points
                   inlet     1120     1365
                  outlet     6914     7605
                gtsModel   901998   919077
                    left     4308     4925
                   right     4308     4925
                     top     6160     6996
                   floor    88066    92533

Checking basic faceZone addressing...
    No faceZones found.

Checking basic cellZone addressing...
    No cellZones found.

Checking geometry...
    Overall domain bounding box (-7.33423 -1.55305 -0.0762) (4.37197 1.55305 2.0574)
    Mesh has 3 geometric (non-empty/wedge) directions (1 1 1)
    Mesh has 3 solution (non-empty) directions (1 1 1)
    Boundary openness (-3.66891e-17 8.21143e-17 -6.71845e-16) OK.
    Max cell openness = 3.73295e-16 OK.
    Max aspect ratio = 4.41866 OK.
    Minimum face area = 2.48675e-07. Maximum face area = 0.00804352.  Face area magnitudes OK.
    Min volume = 3.15919e-10. Max volume = 0.000552509.  Total volume = 75.726.  Cell volumes OK.
    Mesh non-orthogonality Max: 51.2579 average: 5.64615
    Non-orthogonality check OK.
    Face pyramids OK.
    Max skewness = 2.93129 OK.
    Coupled point location match (average 0) OK.

Mesh OK.

--> FOAM Warning : 
    From function virtual Foam::polyMesh::readUpdateState Foam::polyMesh::readUpdate()
    in file meshes/polyMesh/polyMeshIO.C at line 209
    Number of patches has changed.  This may have unexpected consequences.  Proceed with care.
Time = 3

Mesh stats
    points:           26365537
    faces:            73083846
    internal faces:   69047403
    cells:            23384473
    faces per cell:   6.07802
    boundary patches: 13
    point zones:      0
    face zones:       0
    cell zones:       0

Overall number of cells of each type:
    hexahedra:     22488369
    prisms:        22849
    wedges:        23
    pyramids:      0
    tet wedges:    506
    tetrahedra:    0
    polyhedra:     872726
    Breakdown of polyhedra by number of faces:
        faces   number of cells
            4   2455
            5   1269
            6   87670
            7   326474
            8   19375
            9   376799
           10   274
           11   79
           12   55901
           13   3
           15   2404
           18   23

Checking topology...
    Boundary definition OK.
    Cell to face addressing OK.
    Point usage OK.
    Upper triangular ordering OK.
    Face vertices OK.
    Number of regions: 1 (OK).

Checking basic patch addressing...
                   Patch    Faces   Points
                   inlet     1120     1364
                  outlet     6912     7603
                gtsModel   901942   925724
                    left     4308     4925
                   right     4308     4925
                     top     6160     6996
                   floor    88849    93364

Checking basic faceZone addressing...
    No faceZones found.

Checking basic cellZone addressing...
    No cellZones found.

Checking geometry...
    Overall domain bounding box (-7.33424 -1.55305 -0.0762) (4.37198 1.55305 2.0574)
    Mesh has 3 geometric (non-empty/wedge) directions (1 1 1)
    Mesh has 3 solution (non-empty) directions (1 1 1)
    Boundary openness (2.27914e-16 -1.58176e-16 2.08849e-16) OK.
    Max cell openness = 4.09016e-16 OK.
    Max aspect ratio = 173.825 OK.
    Minimum face area = 1.54065e-08. Maximum face area = 0.00804322.  Face area magnitudes OK.
    Min volume = 2.42134e-11. Max volume = 0.000552413.  Total volume = 75.726.  Cell volumes OK.
    Mesh non-orthogonality Max: 64.9655 average: 8.57171
    Non-orthogonality check OK.
    Face pyramids OK.
    Max skewness = 2.92908 OK.
    Coupled point location match (average 0) OK.

Mesh OK.

End

Finalising parallel run
