/*---------------------------------------------------------------------------*\
  =========                 |
  \\      /  F ield         | OpenFOAM: The Open Source CFD Toolbox
   \\    /   O peration     | Website:  https://openfoam.org
    \\  /    A nd           | Version:  7
     \\/     M anipulation  |
\*---------------------------------------------------------------------------*/
Build  : 7
Exec   : snappyHexMesh
Date   : Jul 26 2022
Time   : 13:10:49
Host   : "compute-0-24.local"
PID    : 105056
I/O    : uncollated
Case   : /share/storage/finzeo/gts_converted11_floorTreatment
nProcs : 1
sigFpe : Enabling floating point exception trapping (FOAM_SIGFPE).
fileModificationChecking : Monitoring run-time modified files using timeStampMaster (fileModificationSkew 10)
allowSystemOperations : Allowing user-supplied system call operations

// * * * * * * * * * * * * * * * * * * * * * * * * * * * * * * * * * * * * * //
Create time

Create mesh for time = 0

Read mesh in = 0.05 s

Overall mesh bounding box  : (-38.8 -19 -1.504) (118 19 33.096)
Relative tolerance         : 1e-06
Absolute matching distance : 0.000165007

Reading refinement surfaces.
Read refinement surfaces in = 0.12 s

Reading refinement shells.
Refinement level 1 for all cells inside refinementBox2
Refinement level 2 for all cells inside refinementBox3
Refinement level 3 for all cells inside refinementBox5
Refinement level 4 for all cells inside refinementBox7
Read refinement shells in = 0 s

Setting refinement level of surface to be consistent with shells.
Checked shell refinement in = 0 s

Reading features.
Read edgeMesh vehicleSurfaceMesh.eMesh
    points      : 270
    edges       : 270
    boundingBox : (-12.1916 -1.3 0) (0 1.3 3.6)

Refinement level according to distance to "vehicleSurfaceMesh.eMesh" (270 points, 270 edges).
    level 4 for all cells within 0 metre.
Read features in = 0.01 s


Determining initial surface intersections
-----------------------------------------

Edge intersection testing:
    Number of edges             : 370778
    Number of edges to retest   : 370778
    Number of intersected edges : 16304
Calculated surface intersections in = 0.77 s

Initial mesh : cells:120640  faces:370778  points:129690
Cells per refinement level:
    0	120640

Adding patches for surface regions
----------------------------------

Patch Type                Region                        
----- ----                ------                        
gtsModel:

5     wall                gtsModel                      

inlet:

6     patch               inlet                         

outlet:

7     patch               outlet                        

lateral:

8     patch               lateral                       

top:

9     patch               top                           

bottomNoSlip:

10    wall                bottomNoSlip                  

bottomSlip:

11    wall                bottomSlip                    

Added patches in = 0 s

 Foam::decompositionMethod::New 
{
    method          none;
    numberOfSubdomains 1;
}

Selecting decompositionMethod none
Layer thickness specified as final layer and expansion ratio.

Refinement phase
----------------

Found point (80.0001 0.0001 15.43) in cell 60418 on processor 0

Feature refinement iteration 0
------------------------------

Marked for refinement due to explicit features             : 50 cells.
Determined cells to refine in = 0.67 s
Selected for feature refinement : 50 cells (out of 120640)
Edge intersection testing:
    Number of edges             : 372125
    Number of edges to retest   : 2298
    Number of intersected edges : 16462
Refined mesh in = 0.33 s
After refinement feature refinement iteration 0 : cells:120990  faces:372125  points:130385
Cells per refinement level:
    0	120590
    1	400

Feature refinement iteration 1
------------------------------

Marked for refinement due to explicit features             : 94 cells.
Determined cells to refine in = 0.68 s
Selected for feature refinement : 180 cells (out of 120990)
Edge intersection testing:
    Number of edges             : 376655
    Number of edges to retest   : 6696
    Number of intersected edges : 17122
Refined mesh in = 0.33 s
After refinement feature refinement iteration 1 : cells:122250  faces:376655  points:132467
Cells per refinement level:
    0	120504
    1	994
    2	752

Feature refinement iteration 2
------------------------------

Marked for refinement due to explicit features             : 186 cells.
Determined cells to refine in = 0.7 s
Selected for feature refinement : 442 cells (out of 122250)
Edge intersection testing:
    Number of edges             : 387596
    Number of edges to retest   : 16751
    Number of intersected edges : 18820
Refined mesh in = 0.34 s
After refinement feature refinement iteration 2 : cells:125344  faces:387596  points:137394
Cells per refinement level:
    0	120426
    1	1440
    2	1990
    3	1488

Feature refinement iteration 3
------------------------------

Marked for refinement due to explicit features             : 374 cells.
Determined cells to refine in = 1.19 s
Selected for feature refinement : 978 cells (out of 125344)
Edge intersection testing:
    Number of edges             : 411752
    Number of edges to retest   : 38071
    Number of intersected edges : 21805
Refined mesh in = 0.39 s
After refinement feature refinement iteration 3 : cells:132190  faces:411752  points:148237
Cells per refinement level:
    0	120374
    1	1674
    2	3076
    3	4074
    4	2992

Feature refinement iteration 4
------------------------------

Marked for refinement due to explicit features             : 0 cells.
Determined cells to refine in = 1.24 s
Selected for feature refinement : 0 cells (out of 132190)
Stopping refining since too few cells selected.


Surface refinement iteration 0
------------------------------

Marked for refinement due to surface intersection          : 3704 cells.
Marked for refinement due to curvature/regions             : 746 cells.
Determined cells to refine in = 0.07 s
Selected for refinement : 4963 cells (out of 132190)
Edge intersection testing:
    Number of edges             : 527819
    Number of edges to retest   : 154497
    Number of intersected edges : 31194
Refined mesh in = 0.61 s
After refinement surface refinement iteration 0 : cells:166931  faces:527819  points:195309
Cells per refinement level:
    0	120310
    1	1608
    2	6402
    3	12181
    4	20462
    5	5968

Surface refinement iteration 1
------------------------------

Marked for refinement due to surface intersection          : 6300 cells.
Marked for refinement due to curvature/regions             : 444 cells.
Determined cells to refine in = 0.1 s
Selected for refinement : 7374 cells (out of 166931)
Edge intersection testing:
    Number of edges             : 692255
    Number of edges to retest   : 249794
    Number of intersected edges : 41469
Refined mesh in = 0.87 s
After refinement surface refinement iteration 1 : cells:218549  faces:692255  points:256556
Cells per refinement level:
    0	120288
    1	1586
    2	5948
    3	23813
    4	57394
    5	9520

Surface refinement iteration 2
------------------------------

Marked for refinement due to surface intersection          : 6682 cells.
Marked for refinement due to curvature/regions             : 82 cells.
Determined cells to refine in = 0.13 s
Selected for refinement : 7484 cells (out of 218549)
Edge intersection testing:
    Number of edges             : 858041
    Number of edges to retest   : 235640
    Number of intersected edges : 52086
Refined mesh in = 1.03 s
After refinement surface refinement iteration 2 : cells:270937  faces:858041  points:317289
Cells per refinement level:
    0	120264
    1	1646
    2	6336
    3	22579
    4	109936
    5	10176

Surface refinement iteration 3
------------------------------

Marked for refinement due to surface intersection          : 482 cells.
Marked for refinement due to curvature/regions             : 232 cells.
Determined cells to refine in = 0.16 s
Selected for refinement : 833 cells (out of 270937)
Edge intersection testing:
    Number of edges             : 877526
    Number of edges to retest   : 30488
    Number of intersected edges : 54115
Refined mesh in = 0.88 s
After refinement surface refinement iteration 3 : cells:276768  faces:877526  points:325205
Cells per refinement level:
    0	120260
    1	1664
    2	6384
    3	22572
    4	113856
    5	12032

Surface refinement iteration 4
------------------------------

Marked for refinement due to surface intersection          : 8 cells.
Marked for refinement due to curvature/regions             : 131 cells.
Determined cells to refine in = 0.18 s
Selected for refinement : 174 cells (out of 276768)
Edge intersection testing:
    Number of edges             : 881870
    Number of edges to retest   : 9751
    Number of intersected edges : 54675
Refined mesh in = 0.85 s
After refinement surface refinement iteration 4 : cells:277986  faces:881870  points:327188
Cells per refinement level:
    0	120258
    1	1676
    2	6412
    3	22571
    4	113989
    5	13080

Surface refinement iteration 5
------------------------------

Marked for refinement due to surface intersection          : 0 cells.
Marked for refinement due to curvature/regions             : 33 cells.
Determined cells to refine in = 0.16 s
Selected for refinement : 36 cells (out of 277986)
Edge intersection testing:
    Number of edges             : 882737
    Number of edges to retest   : 2703
    Number of intersected edges : 54795
Refined mesh in = 0.84 s
After refinement surface refinement iteration 5 : cells:278238  faces:882737  points:327550
Cells per refinement level:
    0	120258
    1	1676
    2	6412
    3	22568
    4	113980
    5	13344

Surface refinement iteration 6
------------------------------

Marked for refinement due to surface intersection          : 0 cells.
Marked for refinement due to curvature/regions             : 2 cells.
Determined cells to refine in = 0.15 s
Selected for refinement : 2 cells (out of 278238)
Stopping refining since too few cells selected.


Removing mesh beyond surface intersections
------------------------------------------

Found point (80.0001 0.0001 15.43) in global region 1 out of 3 regions.
Keeping all cells in region 1 containing point (80.0001 0.0001 15.43)
Selected for keeping : 238751 cells.
Edge intersection testing:
    Number of edges             : 767347
    Number of edges to retest   : 31801
    Number of intersected edges : 54795

Shell refinement iteration 0
----------------------------

Marked for refinement due to distance to explicit features : 0 cells.
Marked for refinement due to refinement shells             : 64060 cells.
Determined cells to refine in = 4.73 s
Selected for internal refinement : 76452 cells (out of 238751)
Edge intersection testing:
    Number of edges             : 2408707
    Number of edges to retest   : 2069644
    Number of intersected edges : 77938
Refined mesh in = 4.43 s
After refinement shell refinement iteration 0 : cells:773915  faces:2408707  points:862037
Cells per refinement level:
    0	75134
    1	360992
    2	11124
    3	39664
    4	180537
    5	106464

Shell refinement iteration 1
----------------------------

Marked for refinement due to distance to explicit features : 0 cells.
Marked for refinement due to refinement shells             : 128792 cells.
Determined cells to refine in = 0.37 s
Selected for internal refinement : 133540 cells (out of 773915)
Edge intersection testing:
    Number of edges             : 5240578
    Number of edges to retest   : 3531039
    Number of intersected edges : 93522
Refined mesh in = 8.9 s
After refinement shell refinement iteration 1 : cells:1708695  faces:5240578  points:1824458
Cells per refinement level:
    0	74338
    1	283202
    2	673288
    3	94176
    4	451643
    5	132048

Shell refinement iteration 2
----------------------------

Marked for refinement due to distance to explicit features : 0 cells.
Marked for refinement due to refinement shells             : 168664 cells.
Determined cells to refine in = 0.6 s
Selected for internal refinement : 171364 cells (out of 1708695)
Edge intersection testing:
    Number of edges             : 8866834
    Number of edges to retest   : 4403318
    Number of intersected edges : 100205
Refined mesh in = 13.2 s
After refinement shell refinement iteration 2 : cells:2908243  faces:8866834  points:3051718
Cells per refinement level:
    0	74338
    1	281402
    2	598466
    3	727920
    4	1091589
    5	134528

Shell refinement iteration 3
----------------------------

Marked for refinement due to distance to explicit features : 0 cells.
Marked for refinement due to refinement shells             : 145540 cells.
Determined cells to refine in = 0.85 s
Selected for internal refinement : 146564 cells (out of 2908243)
Edge intersection testing:
    Number of edges             : 11961547
    Number of edges to retest   : 3904911
    Number of intersected edges : 117529
Refined mesh in = 16.26 s
After refinement shell refinement iteration 3 : cells:3934191  faces:11961547  points:4094577
Cells per refinement level:
    0	74338
    1	281374
    2	595190
    3	612964
    4	2235157
    5	135168

Shell refinement iteration 4
----------------------------

Marked for refinement due to distance to explicit features : 0 cells.
Marked for refinement due to refinement shells             : 1878 cells.
Determined cells to refine in = 1.03 s
Selected for internal refinement : 1936 cells (out of 3934191)
Edge intersection testing:
    Number of edges             : 12002293
    Number of edges to retest   : 88297
    Number of intersected edges : 123163
Refined mesh in = 13.16 s
After refinement shell refinement iteration 4 : cells:3947743  faces:12002293  points:4108219
Cells per refinement level:
    0	74338
    1	281374
    2	595132
    3	611550
    4	2250181
    5	135168

Shell refinement iteration 5
----------------------------

Marked for refinement due to distance to explicit features : 0 cells.
Marked for refinement due to refinement shells             : 0 cells.
Determined cells to refine in = 1.03 s
Selected for internal refinement : 2 cells (out of 3947743)
Stopping refining since too few cells selected.


Dangling coarse cells refinement iteration 0
--------------------------------------------

Determined cells to refine in = 0.11 s
Selected for refinement : 3 cells (out of 3947743)
Edge intersection testing:
    Number of edges             : 12002338
    Number of edges to retest   : 363
    Number of intersected edges : 123163
Refined mesh in = 12.82 s
After refinement coarse cell refinement iteration 0 : cells:3947764  faces:12002338  points:4108225
Cells per refinement level:
    0	74338
    1	281374
    2	595132
    3	611550
    4	2250178
    5	135192

Dangling coarse cells refinement iteration 1
--------------------------------------------

Determined cells to refine in = 0.14 s
Selected for refinement : 0 cells (out of 3947764)
Stopping refining since too few cells selected.


Dangling coarse cells refinement iteration 0
--------------------------------------------

Determined cells to refine in = 0.12 s
Selected for refinement : 0 cells (out of 3947764)
Stopping refining since too few cells selected.


Splitting mesh at surface intersections
---------------------------------------

Introducing baffles for 123163 faces that are intersected by the surface.

Edge intersection testing:
    Number of edges             : 12125501
    Number of edges to retest   : 843362
    Number of intersected edges : 204683
Created baffles in = 10.31 s


After introducing baffles : cells:3947764  faces:12125501  points:4108225
Cells per refinement level:
    0	74338
    1	281374
    2	595132
    3	611550
    4	2250178
    5	135192

Introducing baffles to block off problem cells
----------------------------------------------

markFacesOnProblemCells : marked 69714 additional internal faces to be converted into baffles.
Analyzed problem cells in = 9.53 s


Introducing baffles to delete problem cells.

Edge intersection testing:
    Number of edges             : 12195215
    Number of edges to retest   : 228948
    Number of intersected edges : 204683
Created baffles in = 9.95 s


After introducing baffles : cells:3947764  faces:12195215  points:4108225
Cells per refinement level:
    0	74338
    1	281374
    2	595132
    3	611550
    4	2250178
    5	135192

Remove unreachable sections of mesh
-----------------------------------

Keeping all cells in region 1 containing point (80.0001 0.0001 15.43)
Selected for keeping : 3821958 cells.
Edge intersection testing:
    Number of edges             : 11624052
    Number of edges to retest   : 0
    Number of intersected edges : 82711
Split mesh in = 90.24 s


After subsetting : cells:3821958  faces:11624052  points:3981687
Cells per refinement level:
    0	58320
    1	276480
    2	583392
    3	575646
    4	2226004
    5	102116

Handling cells with snap problems
---------------------------------

Introducing baffles for 82711 faces that are intersected by the surface.

Edge intersection testing:
    Number of edges             : 11624052
    Number of edges to retest   : 327805
    Number of intersected edges : 82711
Created baffles in = 7.84 s


After introducing baffles : cells:3821958  faces:11624052  points:3981687
Cells per refinement level:
    0	58320
    1	276480
    2	583392
    3	575646
    4	2226004
    5	102116

Introducing baffles to block off problem cells
----------------------------------------------

markFacesOnProblemCells : marked 0 additional internal faces to be converted into baffles.
Analyzed problem cells in = 8.73 s


Introducing baffles to delete problem cells.

Edge intersection testing:
    Number of edges             : 11624052
    Number of edges to retest   : 0
    Number of intersected edges : 82711
Created baffles in = 7.52 s


After introducing baffles : cells:3821958  faces:11624052  points:3981687
Cells per refinement level:
    0	58320
    1	276480
    2	583392
    3	575646
    4	2226004
    5	102116

Remove unreachable sections of mesh
-----------------------------------

Keeping all cells in region 0 containing point (80.0001 0.0001 15.43)
Selected for keeping : 3821958 cells.
Edge intersection testing:
    Number of edges             : 11624052
    Number of edges to retest   : 0
    Number of intersected edges : 82711
Split mesh in = 86.14 s


After subsetting : cells:3821958  faces:11624052  points:3981687
Cells per refinement level:
    0	58320
    1	276480
    2	583392
    3	575646
    4	2226004
    5	102116

Merge free-standing baffles
---------------------------

freeStandingBaffles : detected 0 free-standing baffles out of 0

Detected free-standing baffles : 0
Merged free-standing baffles in = 2.2 s


dupNonManifoldPoints : Found : 0 non-manifold points (out of 3981687)
Edge intersection testing:
    Number of edges             : 11624052
    Number of edges to retest   : 0
    Number of intersected edges : 82711
Detected unsplittable baffles : 0

Merge refined boundary faces
----------------------------

Merging 618 sets of faces.

Edge intersection testing:
    Number of edges             : 11623410
    Number of edges to retest   : 4334
    Number of intersected edges : 82068

Undo iteration 0
----------------
Checking faces in error :
    non-orthogonality > 65  degrees                        : 0
    faces with face pyramid volume < 1e-13                 : 0
    faces with face-decomposition tet quality < 1e-15      : 0
    faces with concavity > 80  degrees                     : 0
    faces with skewness > 4   (internal) or 20  (boundary) : 0
    faces with interpolation weights (0..1)  < 0.02        : 0
    faces with volume ratio of neighbour cells < 0.01      : 0
    faces with face twist < 0.02                           : 0
    faces on cells with determinant < 0.001                : 0

Merging all points on surface that
- are used by only two boundary faces and
- make an angle with a cosine of more than 0.707107.

Removing 627 straight edge points ...

Edge intersection testing:
    Number of edges             : 11623410
    Number of edges to retest   : 4386
    Number of intersected edges : 82068

Undo iteration 0
----------------
Checking faces in error :
    non-orthogonality > 65  degrees                        : 0
    faces with face pyramid volume < 1e-13                 : 0
    faces with face-decomposition tet quality < 1e-15      : 0
    faces with concavity > 80  degrees                     : 0
    faces with skewness > 4   (internal) or 20  (boundary) : 0
    faces with interpolation weights (0..1)  < 0.02        : 0
    faces with volume ratio of neighbour cells < 0.01      : 0
    faces with face twist < 0.02                           : 0
    faces on cells with determinant < 0.001                : 0
Refined mesh : cells:3821958  faces:11623410  points:3981048
Cells per refinement level:
    0	58320
    1	276480
    2	583392
    3	575646
    4	2226004
    5	102116
Writing mesh to time 1
Wrote mesh in = 55.83 s.
Mesh refined in = 377.94 s.

Morphing phase
--------------


Snapping to features in 10 iterations ...
Constructing mesh displacer ...
Using mesh parameters 
{
    maxNonOrtho     65;
    maxBoundarySkewness 20;
    maxInternalSkewness 4;
    maxConcave      80;
    minVol          1e-13;
    minTetQuality   1e-15;
    minArea         -1;
    minTwist        0.02;
    minDeterminant  0.001;
    minFaceWeight   0.02;
    minVolRatio     0.01;
    minTriangleTwist -1;
    nSmoothScale    4;
    errorReduction  0.75;
}


Checking initial mesh ...
Checking faces in error :
    non-orthogonality > 65  degrees                        : 0
    faces with face pyramid volume < 1e-13                 : 0
    faces with face-decomposition tet quality < 1e-15      : 0
    faces with concavity > 80  degrees                     : 0
    faces with skewness > 4   (internal) or 20  (boundary) : 0
    faces with interpolation weights (0..1)  < 0.02        : 0
    faces with volume ratio of neighbour cells < 0.01      : 0
    faces with face twist < 0.02                           : 0
    faces on cells with determinant < 0.001                : 0
Detected 0 illegal faces (concave, zero area or negative cell pyramid volume)
Checked initial mesh in = 16.1 s


Smoothing patch points ...
Smoothing iteration 0
Found 0 non-manifold point(s).

Scaling iteration 0
Moving mesh using displacement scaling : min:1  max:1
Checking faces in error :
    non-orthogonality > 65  degrees                        : 0
    faces with face pyramid volume < 1e-13                 : 0
    faces with face-decomposition tet quality < 1e-15      : 0
    faces with concavity > 80  degrees                     : 0
    faces with skewness > 4   (internal) or 20  (boundary) : 0
    faces with interpolation weights (0..1)  < 0.02        : 0
    faces with volume ratio of neighbour cells < 0.01      : 0
    faces with face twist < 0.02                           : 0
    faces on cells with determinant < 0.001                : 0
Successfully moved mesh

Smoothing iteration 1
Found 0 non-manifold point(s).

Scaling iteration 0
Moving mesh using displacement scaling : min:1  max:1
Checking faces in error :
    non-orthogonality > 65  degrees                        : 0
    faces with face pyramid volume < 1e-13                 : 0
    faces with face-decomposition tet quality < 1e-15      : 1
    faces with concavity > 80  degrees                     : 0
    faces with skewness > 4   (internal) or 20  (boundary) : 0
    faces with interpolation weights (0..1)  < 0.02        : 0
    faces with volume ratio of neighbour cells < 0.01      : 0
    faces with face twist < 0.02                           : 0
    faces on cells with determinant < 0.001                : 0

Scaling iteration 1
Moving mesh using displacement scaling : min:0.75  max:1
Checking faces in error :
    non-orthogonality > 65  degrees                        : 0
    faces with face pyramid volume < 1e-13                 : 0
    faces with face-decomposition tet quality < 1e-15      : 1
    faces with concavity > 80  degrees                     : 0
    faces with skewness > 4   (internal) or 20  (boundary) : 0
    faces with interpolation weights (0..1)  < 0.02        : 0
    faces with volume ratio of neighbour cells < 0.01      : 0
    faces with face twist < 0.02                           : 0
    faces on cells with determinant < 0.001                : 0

Scaling iteration 2
Moving mesh using displacement scaling : min:0.5625  max:1
Checking faces in error :
    non-orthogonality > 65  degrees                        : 0
    faces with face pyramid volume < 1e-13                 : 0
    faces with face-decomposition tet quality < 1e-15      : 0
    faces with concavity > 80  degrees                     : 0
    faces with skewness > 4   (internal) or 20  (boundary) : 0
    faces with interpolation weights (0..1)  < 0.02        : 0
    faces with volume ratio of neighbour cells < 0.01      : 0
    faces with face twist < 0.02                           : 0
    faces on cells with determinant < 0.001                : 0
Successfully moved mesh

Smoothing iteration 2
Found 0 non-manifold point(s).

Scaling iteration 0
Moving mesh using displacement scaling : min:1  max:1
Checking faces in error :
    non-orthogonality > 65  degrees                        : 0
    faces with face pyramid volume < 1e-13                 : 0
    faces with face-decomposition tet quality < 1e-15      : 1
    faces with concavity > 80  degrees                     : 0
    faces with skewness > 4   (internal) or 20  (boundary) : 0
    faces with interpolation weights (0..1)  < 0.02        : 0
    faces with volume ratio of neighbour cells < 0.01      : 0
    faces with face twist < 0.02                           : 0
    faces on cells with determinant < 0.001                : 0

Scaling iteration 1
Moving mesh using displacement scaling : min:0.75  max:1
Checking faces in error :
    non-orthogonality > 65  degrees                        : 0
    faces with face pyramid volume < 1e-13                 : 0
    faces with face-decomposition tet quality < 1e-15      : 1
    faces with concavity > 80  degrees                     : 0
    faces with skewness > 4   (internal) or 20  (boundary) : 0
    faces with interpolation weights (0..1)  < 0.02        : 0
    faces with volume ratio of neighbour cells < 0.01      : 0
    faces with face twist < 0.02                           : 0
    faces on cells with determinant < 0.001                : 0

Scaling iteration 2
Moving mesh using displacement scaling : min:0.5625  max:1
Checking faces in error :
    non-orthogonality > 65  degrees                        : 0
    faces with face pyramid volume < 1e-13                 : 0
    faces with face-decomposition tet quality < 1e-15      : 1
    faces with concavity > 80  degrees                     : 0
    faces with skewness > 4   (internal) or 20  (boundary) : 0
    faces with interpolation weights (0..1)  < 0.02        : 0
    faces with volume ratio of neighbour cells < 0.01      : 0
    faces with face twist < 0.02                           : 0
    faces on cells with determinant < 0.001                : 0

Scaling iteration 3
Moving mesh using displacement scaling : min:0.421875  max:1
Checking faces in error :
    non-orthogonality > 65  degrees                        : 0
    faces with face pyramid volume < 1e-13                 : 0
    faces with face-decomposition tet quality < 1e-15      : 1
    faces with concavity > 80  degrees                     : 0
    faces with skewness > 4   (internal) or 20  (boundary) : 0
    faces with interpolation weights (0..1)  < 0.02        : 0
    faces with volume ratio of neighbour cells < 0.01      : 0
    faces with face twist < 0.02                           : 0
    faces on cells with determinant < 0.001                : 0

Scaling iteration 4
Moving mesh using displacement scaling : min:0.316406  max:1
Checking faces in error :
    non-orthogonality > 65  degrees                        : 0
    faces with face pyramid volume < 1e-13                 : 0
    faces with face-decomposition tet quality < 1e-15      : 1
    faces with concavity > 80  degrees                     : 0
    faces with skewness > 4   (internal) or 20  (boundary) : 0
    faces with interpolation weights (0..1)  < 0.02        : 0
    faces with volume ratio of neighbour cells < 0.01      : 0
    faces with face twist < 0.02                           : 0
    faces on cells with determinant < 0.001                : 0

Scaling iteration 5
Displacement scaling for error reduction set to 0.
Moving mesh using displacement scaling : min:0.237305  max:1
Checking faces in error :
    non-orthogonality > 65  degrees                        : 0
    faces with face pyramid volume < 1e-13                 : 0
    faces with face-decomposition tet quality < 1e-15      : 1
    faces with concavity > 80  degrees                     : 0
    faces with skewness > 4   (internal) or 20  (boundary) : 0
    faces with interpolation weights (0..1)  < 0.02        : 0
    faces with volume ratio of neighbour cells < 0.01      : 0
    faces with face twist < 0.02                           : 0
    faces on cells with determinant < 0.001                : 0

Scaling iteration 6
Moving mesh using displacement scaling : min:0  max:1
Checking faces in error :
    non-orthogonality > 65  degrees                        : 0
    faces with face pyramid volume < 1e-13                 : 0
    faces with face-decomposition tet quality < 1e-15      : 0
    faces with concavity > 80  degrees                     : 0
    faces with skewness > 4   (internal) or 20  (boundary) : 0
    faces with interpolation weights (0..1)  < 0.02        : 0
    faces with volume ratio of neighbour cells < 0.01      : 0
    faces with face twist < 0.02                           : 0
    faces on cells with determinant < 0.001                : 0
Successfully moved mesh

Patch points smoothed in = 108.37 s



Morph iteration 0
-----------------
Calculating patchDisplacement as distance to nearest surface point ...
Wanted displacement : average:0.101552 min:4.84564e-07 max:0.903153
Calculated surface displacement in = 0.14 s


Detecting near surfaces ...
Overriding nearest with intersection of close gaps at 0 out of 124071 points.
Overriding displacement on features :
   implicit features    : false
   explicit features    : true
   multi-patch features : false

Detected 0 baffle edges out of 246572 edges.
Initially selected 2255 points out of 124071 for reverse attraction.
Selected 6640 points out of 124071 for reverse attraction.
Stringing feature edges : changed 21 points
Stringing feature edges : changed 2 points
Stringing feature edges : changed 0 points
Attraction:
     linear   : max:(0 0.903153 0) avg:(-0.000111314 -3.34994e-06 -0.0216286)
     feature  : max:(0.028556 0.0148973 0.00981589) avg:(6.63634e-05 6.15196e-09 3.66815e-05)
Feature analysis : total master points:124071 attraction to :
    feature point   : 8
    feature edge    : 1499
    nearest surface : 0
    rest            : 122564

--> FOAM Warning : Displacement (-0.000104301 -2.15179e-11 4.0973e-09) at mesh point 215157 coord (-12.199 2.96446e-16 0.956776) points through the surrounding patch faces
Smoothing displacement ...
Iteration 0
Iteration 10
Iteration 20
Displacement smoothed in = 15.29 s


Moving mesh ...

Iteration 0
Moving mesh using displacement scaling : min:1  max:1
Checking faces in error :
    non-orthogonality > 65  degrees                        : 0
    faces with face pyramid volume < 1e-13                 : 0
    faces with face-decomposition tet quality < 1e-15      : 0
    faces with concavity > 80  degrees                     : 0
    faces with skewness > 4   (internal) or 20  (boundary) : 0
    faces with interpolation weights (0..1)  < 0.02        : 0
    faces with volume ratio of neighbour cells < 0.01      : 0
    faces with face twist < 0.02                           : 0
    faces on cells with determinant < 0.001                : 0
Successfully moved mesh
Moved mesh in = 18.86 s



Morph iteration 1
-----------------
Calculating patchDisplacement as distance to nearest surface point ...
Wanted displacement : average:0.0920193 min:1.01707e-06 max:0.874768
Calculated surface displacement in = 0.16 s


Detecting near surfaces ...
Overriding nearest with intersection of close gaps at 0 out of 124071 points.
Overriding displacement on features :
   implicit features    : false
   explicit features    : true
   multi-patch features : false

Detected 0 baffle edges out of 246572 edges.
Initially selected 2255 points out of 124071 for reverse attraction.
Selected 6640 points out of 124071 for reverse attraction.
Stringing feature edges : changed 21 points
Stringing feature edges : changed 1 points
Stringing feature edges : changed 0 points
Attraction:
     linear   : max:(0 0.874768 0) avg:(-9.71074e-05 -3.06752e-06 -0.0194624)
     feature  : max:(0.0282705 0.0147483 0.0088343) avg:(6.56535e-05 -7.03278e-09 3.34266e-05)
Feature analysis : total master points:124071 attraction to :
    feature point   : 8
    feature edge    : 1498
    nearest surface : 0
    rest            : 122565

--> FOAM Warning : Displacement (-0.000187919 1.08978e-10 7.20044e-09) at mesh point 215157 coord (-12.1991 -2.15176e-11 0.956776) points through the surrounding patch faces
Smoothing displacement ...
Iteration 0
Iteration 10
Iteration 20
Displacement smoothed in = 15.58 s


Moving mesh ...

Iteration 0
Moving mesh using displacement scaling : min:1  max:1
Checking faces in error :
    non-orthogonality > 65  degrees                        : 0
    faces with face pyramid volume < 1e-13                 : 0
    faces with face-decomposition tet quality < 1e-15      : 1
    faces with concavity > 80  degrees                     : 0
    faces with skewness > 4   (internal) or 20  (boundary) : 0
    faces with interpolation weights (0..1)  < 0.02        : 0
    faces with volume ratio of neighbour cells < 0.01      : 0
    faces with face twist < 0.02                           : 0
    faces on cells with determinant < 0.001                : 0

Iteration 1
Moving mesh using displacement scaling : min:0.75  max:1
Checking faces in error :
    non-orthogonality > 65  degrees                        : 0
    faces with face pyramid volume < 1e-13                 : 0
    faces with face-decomposition tet quality < 1e-15      : 1
    faces with concavity > 80  degrees                     : 0
    faces with skewness > 4   (internal) or 20  (boundary) : 0
    faces with interpolation weights (0..1)  < 0.02        : 0
    faces with volume ratio of neighbour cells < 0.01      : 0
    faces with face twist < 0.02                           : 0
    faces on cells with determinant < 0.001                : 0

Iteration 2
Moving mesh using displacement scaling : min:0.5625  max:1
Checking faces in error :
    non-orthogonality > 65  degrees                        : 0
    faces with face pyramid volume < 1e-13                 : 0
    faces with face-decomposition tet quality < 1e-15      : 1
    faces with concavity > 80  degrees                     : 0
    faces with skewness > 4   (internal) or 20  (boundary) : 0
    faces with interpolation weights (0..1)  < 0.02        : 0
    faces with volume ratio of neighbour cells < 0.01      : 0
    faces with face twist < 0.02                           : 0
    faces on cells with determinant < 0.001                : 0

Iteration 3
Moving mesh using displacement scaling : min:0.421875  max:1
Checking faces in error :
    non-orthogonality > 65  degrees                        : 0
    faces with face pyramid volume < 1e-13                 : 0
    faces with face-decomposition tet quality < 1e-15      : 1
    faces with concavity > 80  degrees                     : 0
    faces with skewness > 4   (internal) or 20  (boundary) : 0
    faces with interpolation weights (0..1)  < 0.02        : 0
    faces with volume ratio of neighbour cells < 0.01      : 0
    faces with face twist < 0.02                           : 0
    faces on cells with determinant < 0.001                : 0

Iteration 4
Moving mesh using displacement scaling : min:0.316406  max:1
Checking faces in error :
    non-orthogonality > 65  degrees                        : 0
    faces with face pyramid volume < 1e-13                 : 0
    faces with face-decomposition tet quality < 1e-15      : 1
    faces with concavity > 80  degrees                     : 0
    faces with skewness > 4   (internal) or 20  (boundary) : 0
    faces with interpolation weights (0..1)  < 0.02        : 0
    faces with volume ratio of neighbour cells < 0.01      : 0
    faces with face twist < 0.02                           : 0
    faces on cells with determinant < 0.001                : 0

Iteration 5
Displacement scaling for error reduction set to 0.
Moving mesh using displacement scaling : min:0.237305  max:1
Checking faces in error :
    non-orthogonality > 65  degrees                        : 0
    faces with face pyramid volume < 1e-13                 : 0
    faces with face-decomposition tet quality < 1e-15      : 1
    faces with concavity > 80  degrees                     : 0
    faces with skewness > 4   (internal) or 20  (boundary) : 0
    faces with interpolation weights (0..1)  < 0.02        : 0
    faces with volume ratio of neighbour cells < 0.01      : 0
    faces with face twist < 0.02                           : 0
    faces on cells with determinant < 0.001                : 0

Iteration 6
Moving mesh using displacement scaling : min:0  max:1
Checking faces in error :
    non-orthogonality > 65  degrees                        : 0
    faces with face pyramid volume < 1e-13                 : 0
    faces with face-decomposition tet quality < 1e-15      : 0
    faces with concavity > 80  degrees                     : 0
    faces with skewness > 4   (internal) or 20  (boundary) : 0
    faces with interpolation weights (0..1)  < 0.02        : 0
    faces with volume ratio of neighbour cells < 0.01      : 0
    faces with face twist < 0.02                           : 0
    faces on cells with determinant < 0.001                : 0
Successfully moved mesh
Moved mesh in = 56.14 s



Morph iteration 2
-----------------
Calculating patchDisplacement as distance to nearest surface point ...
Wanted displacement : average:0.0747168 min:2.33346e-07 max:0.818841
Calculated surface displacement in = 0.16 s


Detecting near surfaces ...
Overriding nearest with intersection of close gaps at 0 out of 124071 points.
Overriding displacement on features :
   implicit features    : false
   explicit features    : true
   multi-patch features : false

Detected 0 baffle edges out of 246572 edges.
Initially selected 2255 points out of 124071 for reverse attraction.
Selected 6640 points out of 124071 for reverse attraction.
Stringing feature edges : changed 20 points
Stringing feature edges : changed 1 points
Stringing feature edges : changed 0 points
Attraction:
     linear   : max:(0 0.818841 0) avg:(-7.38723e-05 -2.55699e-06 -0.0155651)
     feature  : max:(0.0271397 0.0141584 0.00706744) avg:(6.28628e-05 -1.51775e-07 2.70541e-05)
Feature analysis : total master points:124071 attraction to :
    feature point   : 8
    feature edge    : 1500
    nearest surface : 0
    rest            : 122563

--> FOAM Warning : Displacement (-0.00022574 7.18337e-10 9.58274e-09) at mesh point 215157 coord (-12.1992 8.74605e-11 0.956776) points through the surrounding patch faces
Smoothing displacement ...
Iteration 0
Iteration 10
Iteration 20
Displacement smoothed in = 15.58 s


Moving mesh ...

Iteration 0
Moving mesh using displacement scaling : min:1  max:1
Checking faces in error :
    non-orthogonality > 65  degrees                        : 0
    faces with face pyramid volume < 1e-13                 : 0
    faces with face-decomposition tet quality < 1e-15      : 1
    faces with concavity > 80  degrees                     : 0
    faces with skewness > 4   (internal) or 20  (boundary) : 0
    faces with interpolation weights (0..1)  < 0.02        : 0
    faces with volume ratio of neighbour cells < 0.01      : 0
    faces with face twist < 0.02                           : 0
    faces on cells with determinant < 0.001                : 0

Iteration 1
Moving mesh using displacement scaling : min:0.75  max:1
Checking faces in error :
    non-orthogonality > 65  degrees                        : 0
    faces with face pyramid volume < 1e-13                 : 0
    faces with face-decomposition tet quality < 1e-15      : 1
    faces with concavity > 80  degrees                     : 0
    faces with skewness > 4   (internal) or 20  (boundary) : 0
    faces with interpolation weights (0..1)  < 0.02        : 0
    faces with volume ratio of neighbour cells < 0.01      : 0
    faces with face twist < 0.02                           : 0
    faces on cells with determinant < 0.001                : 0

Iteration 2
Moving mesh using displacement scaling : min:0.5625  max:1
Checking faces in error :
    non-orthogonality > 65  degrees                        : 0
    faces with face pyramid volume < 1e-13                 : 0
    faces with face-decomposition tet quality < 1e-15      : 1
    faces with concavity > 80  degrees                     : 0
    faces with skewness > 4   (internal) or 20  (boundary) : 0
    faces with interpolation weights (0..1)  < 0.02        : 0
    faces with volume ratio of neighbour cells < 0.01      : 0
    faces with face twist < 0.02                           : 0
    faces on cells with determinant < 0.001                : 0

Iteration 3
Moving mesh using displacement scaling : min:0.421875  max:1
Checking faces in error :
    non-orthogonality > 65  degrees                        : 0
    faces with face pyramid volume < 1e-13                 : 0
    faces with face-decomposition tet quality < 1e-15      : 1
    faces with concavity > 80  degrees                     : 0
    faces with skewness > 4   (internal) or 20  (boundary) : 0
    faces with interpolation weights (0..1)  < 0.02        : 0
    faces with volume ratio of neighbour cells < 0.01      : 0
    faces with face twist < 0.02                           : 0
    faces on cells with determinant < 0.001                : 0

Iteration 4
Moving mesh using displacement scaling : min:0.316406  max:1
Checking faces in error :
    non-orthogonality > 65  degrees                        : 0
    faces with face pyramid volume < 1e-13                 : 0
    faces with face-decomposition tet quality < 1e-15      : 1
    faces with concavity > 80  degrees                     : 0
    faces with skewness > 4   (internal) or 20  (boundary) : 0
    faces with interpolation weights (0..1)  < 0.02        : 0
    faces with volume ratio of neighbour cells < 0.01      : 0
    faces with face twist < 0.02                           : 0
    faces on cells with determinant < 0.001                : 0

Iteration 5
Displacement scaling for error reduction set to 0.
Moving mesh using displacement scaling : min:0.237305  max:1
Checking faces in error :
    non-orthogonality > 65  degrees                        : 0
    faces with face pyramid volume < 1e-13                 : 0
    faces with face-decomposition tet quality < 1e-15      : 1
    faces with concavity > 80  degrees                     : 0
    faces with skewness > 4   (internal) or 20  (boundary) : 0
    faces with interpolation weights (0..1)  < 0.02        : 0
    faces with volume ratio of neighbour cells < 0.01      : 0
    faces with face twist < 0.02                           : 0
    faces on cells with determinant < 0.001                : 0

Iteration 6
Moving mesh using displacement scaling : min:0  max:1
Checking faces in error :
    non-orthogonality > 65  degrees                        : 0
    faces with face pyramid volume < 1e-13                 : 0
    faces with face-decomposition tet quality < 1e-15      : 0
    faces with concavity > 80  degrees                     : 0
    faces with skewness > 4   (internal) or 20  (boundary) : 0
    faces with interpolation weights (0..1)  < 0.02        : 0
    faces with volume ratio of neighbour cells < 0.01      : 0
    faces with face twist < 0.02                           : 0
    faces on cells with determinant < 0.001                : 0
Successfully moved mesh
Moved mesh in = 56.18 s



Morph iteration 3
-----------------
Calculating patchDisplacement as distance to nearest surface point ...
Wanted displacement : average:0.053697 min:7.56574e-08 max:0.740084
Calculated surface displacement in = 0.16 s


Detecting near surfaces ...
Overriding nearest with intersection of close gaps at 0 out of 124071 points.
Overriding displacement on features :
   implicit features    : false
   explicit features    : true
   multi-patch features : false

Detected 0 baffle edges out of 246572 edges.
Initially selected 2255 points out of 124071 for reverse attraction.
Selected 6639 points out of 124071 for reverse attraction.
Stringing feature edges : changed 19 points
Stringing feature edges : changed 1 points
Stringing feature edges : changed 0 points
Attraction:
     linear   : max:(0 0.740084 0) avg:(-4.9777e-05 -1.9002e-06 -0.0108913)
     feature  : max:(0.0246971 0.0128841 0.00494721) avg:(5.72025e-05 3.68228e-09 1.91318e-05)
Feature analysis : total master points:124071 attraction to :
    feature point   : 8
    feature edge    : 1502
    nearest surface : 0
    rest            : 122561

--> FOAM Warning : Displacement (-0.000210656 1.3551e-09 1.06923e-08) at mesh point 215157 coord (-12.1995 8.05797e-10 0.956776) points through the surrounding patch faces
Smoothing displacement ...
Iteration 0
Iteration 10
Iteration 20
Displacement smoothed in = 15.58 s


Moving mesh ...

Iteration 0
Moving mesh using displacement scaling : min:1  max:1
Checking faces in error :
    non-orthogonality > 65  degrees                        : 0
    faces with face pyramid volume < 1e-13                 : 0
    faces with face-decomposition tet quality < 1e-15      : 1
    faces with concavity > 80  degrees                     : 0
    faces with skewness > 4   (internal) or 20  (boundary) : 0
    faces with interpolation weights (0..1)  < 0.02        : 0
    faces with volume ratio of neighbour cells < 0.01      : 0
    faces with face twist < 0.02                           : 0
    faces on cells with determinant < 0.001                : 0

Iteration 1
Moving mesh using displacement scaling : min:0.75  max:1
Checking faces in error :
    non-orthogonality > 65  degrees                        : 0
    faces with face pyramid volume < 1e-13                 : 0
    faces with face-decomposition tet quality < 1e-15      : 1
    faces with concavity > 80  degrees                     : 0
    faces with skewness > 4   (internal) or 20  (boundary) : 0
    faces with interpolation weights (0..1)  < 0.02        : 0
    faces with volume ratio of neighbour cells < 0.01      : 0
    faces with face twist < 0.02                           : 0
    faces on cells with determinant < 0.001                : 0

Iteration 2
Moving mesh using displacement scaling : min:0.5625  max:1
Checking faces in error :
    non-orthogonality > 65  degrees                        : 0
    faces with face pyramid volume < 1e-13                 : 0
    faces with face-decomposition tet quality < 1e-15      : 1
    faces with concavity > 80  degrees                     : 0
    faces with skewness > 4   (internal) or 20  (boundary) : 0
    faces with interpolation weights (0..1)  < 0.02        : 0
    faces with volume ratio of neighbour cells < 0.01      : 0
    faces with face twist < 0.02                           : 0
    faces on cells with determinant < 0.001                : 0

Iteration 3
Moving mesh using displacement scaling : min:0.421875  max:1
Checking faces in error :
    non-orthogonality > 65  degrees                        : 0
    faces with face pyramid volume < 1e-13                 : 0
    faces with face-decomposition tet quality < 1e-15      : 1
    faces with concavity > 80  degrees                     : 0
    faces with skewness > 4   (internal) or 20  (boundary) : 0
    faces with interpolation weights (0..1)  < 0.02        : 0
    faces with volume ratio of neighbour cells < 0.01      : 0
    faces with face twist < 0.02                           : 0
    faces on cells with determinant < 0.001                : 0

Iteration 4
Moving mesh using displacement scaling : min:0.316406  max:1
Checking faces in error :
    non-orthogonality > 65  degrees                        : 0
    faces with face pyramid volume < 1e-13                 : 0
    faces with face-decomposition tet quality < 1e-15      : 1
    faces with concavity > 80  degrees                     : 0
    faces with skewness > 4   (internal) or 20  (boundary) : 0
    faces with interpolation weights (0..1)  < 0.02        : 0
    faces with volume ratio of neighbour cells < 0.01      : 0
    faces with face twist < 0.02                           : 0
    faces on cells with determinant < 0.001                : 0

Iteration 5
Displacement scaling for error reduction set to 0.
Moving mesh using displacement scaling : min:0.237305  max:1
Checking faces in error :
    non-orthogonality > 65  degrees                        : 0
    faces with face pyramid volume < 1e-13                 : 0
    faces with face-decomposition tet quality < 1e-15      : 1
    faces with concavity > 80  degrees                     : 0
    faces with skewness > 4   (internal) or 20  (boundary) : 0
    faces with interpolation weights (0..1)  < 0.02        : 0
    faces with volume ratio of neighbour cells < 0.01      : 0
    faces with face twist < 0.02                           : 0
    faces on cells with determinant < 0.001                : 0

Iteration 6
Moving mesh using displacement scaling : min:0  max:1
Checking faces in error :
    non-orthogonality > 65  degrees                        : 0
    faces with face pyramid volume < 1e-13                 : 0
    faces with face-decomposition tet quality < 1e-15      : 0
    faces with concavity > 80  degrees                     : 0
    faces with skewness > 4   (internal) or 20  (boundary) : 0
    faces with interpolation weights (0..1)  < 0.02        : 0
    faces with volume ratio of neighbour cells < 0.01      : 0
    faces with face twist < 0.02                           : 0
    faces on cells with determinant < 0.001                : 0
Successfully moved mesh
Moved mesh in = 56.2 s



Morph iteration 4
-----------------
Calculating patchDisplacement as distance to nearest surface point ...
Wanted displacement : average:0.0336567 min:3.54629e-07 max:0.645304
Calculated surface displacement in = 0.16 s


Detecting near surfaces ...
Overriding nearest with intersection of close gaps at 0 out of 124071 points.
Overriding displacement on features :
   implicit features    : false
   explicit features    : true
   multi-patch features : false

Detected 0 baffle edges out of 246572 edges.
Initially selected 2264 points out of 124071 for reverse attraction.
Selected 6661 points out of 124071 for reverse attraction.
Stringing feature edges : changed 16 points
Stringing feature edges : changed 0 points
Attraction:
     linear   : max:(0 -0.645304 -1.11022e-16) avg:(-3.21361e-05 -1.23853e-06 -0.00653254)
     feature  : max:(0.0207455 0.0108227 0.00296832) avg:(4.82171e-05 3.14127e-08 1.20696e-05)
Feature analysis : total master points:124071 attraction to :
    feature point   : 6
    feature edge    : 1508
    nearest surface : 0
    rest            : 122557

--> FOAM Warning : Displacement (-0.000157575 1.23714e-09 9.10294e-09) at mesh point 215157 coord (-12.1997 2.1609e-09 0.956776) points through the surrounding patch faces
Smoothing displacement ...
Iteration 0
Iteration 10
Iteration 20
Displacement smoothed in = 15.59 s


Moving mesh ...

Iteration 0
Moving mesh using displacement scaling : min:1  max:1
Checking faces in error :
    non-orthogonality > 65  degrees                        : 0
    faces with face pyramid volume < 1e-13                 : 0
    faces with face-decomposition tet quality < 1e-15      : 1
    faces with concavity > 80  degrees                     : 0
    faces with skewness > 4   (internal) or 20  (boundary) : 0
    faces with interpolation weights (0..1)  < 0.02        : 0
    faces with volume ratio of neighbour cells < 0.01      : 0
    faces with face twist < 0.02                           : 0
    faces on cells with determinant < 0.001                : 0

Iteration 1
Moving mesh using displacement scaling : min:0.75  max:1
Checking faces in error :
    non-orthogonality > 65  degrees                        : 0
    faces with face pyramid volume < 1e-13                 : 0
    faces with face-decomposition tet quality < 1e-15      : 1
    faces with concavity > 80  degrees                     : 0
    faces with skewness > 4   (internal) or 20  (boundary) : 0
    faces with interpolation weights (0..1)  < 0.02        : 0
    faces with volume ratio of neighbour cells < 0.01      : 0
    faces with face twist < 0.02                           : 0
    faces on cells with determinant < 0.001                : 0

Iteration 2
Moving mesh using displacement scaling : min:0.5625  max:1
Checking faces in error :
    non-orthogonality > 65  degrees                        : 0
    faces with face pyramid volume < 1e-13                 : 0
    faces with face-decomposition tet quality < 1e-15      : 1
    faces with concavity > 80  degrees                     : 0
    faces with skewness > 4   (internal) or 20  (boundary) : 0
    faces with interpolation weights (0..1)  < 0.02        : 0
    faces with volume ratio of neighbour cells < 0.01      : 0
    faces with face twist < 0.02                           : 0
    faces on cells with determinant < 0.001                : 0

Iteration 3
Moving mesh using displacement scaling : min:0.421875  max:1
Checking faces in error :
    non-orthogonality > 65  degrees                        : 0
    faces with face pyramid volume < 1e-13                 : 0
    faces with face-decomposition tet quality < 1e-15      : 1
    faces with concavity > 80  degrees                     : 0
    faces with skewness > 4   (internal) or 20  (boundary) : 0
    faces with interpolation weights (0..1)  < 0.02        : 0
    faces with volume ratio of neighbour cells < 0.01      : 0
    faces with face twist < 0.02                           : 0
    faces on cells with determinant < 0.001                : 0

Iteration 4
Moving mesh using displacement scaling : min:0.316406  max:1
Checking faces in error :
    non-orthogonality > 65  degrees                        : 0
    faces with face pyramid volume < 1e-13                 : 0
    faces with face-decomposition tet quality < 1e-15      : 1
    faces with concavity > 80  degrees                     : 0
    faces with skewness > 4   (internal) or 20  (boundary) : 0
    faces with interpolation weights (0..1)  < 0.02        : 0
    faces with volume ratio of neighbour cells < 0.01      : 0
    faces with face twist < 0.02                           : 0
    faces on cells with determinant < 0.001                : 0

Iteration 5
Displacement scaling for error reduction set to 0.
Moving mesh using displacement scaling : min:0.237305  max:1
Checking faces in error :
    non-orthogonality > 65  degrees                        : 0
    faces with face pyramid volume < 1e-13                 : 0
    faces with face-decomposition tet quality < 1e-15      : 1
    faces with concavity > 80  degrees                     : 0
    faces with skewness > 4   (internal) or 20  (boundary) : 0
    faces with interpolation weights (0..1)  < 0.02        : 0
    faces with volume ratio of neighbour cells < 0.01      : 0
    faces with face twist < 0.02                           : 0
    faces on cells with determinant < 0.001                : 0

Iteration 6
Moving mesh using displacement scaling : min:0  max:1
Checking faces in error :
    non-orthogonality > 65  degrees                        : 0
    faces with face pyramid volume < 1e-13                 : 0
    faces with face-decomposition tet quality < 1e-15      : 0
    faces with concavity > 80  degrees                     : 0
    faces with skewness > 4   (internal) or 20  (boundary) : 0
    faces with interpolation weights (0..1)  < 0.02        : 0
    faces with volume ratio of neighbour cells < 0.01      : 0
    faces with face twist < 0.02                           : 0
    faces on cells with determinant < 0.001                : 0
Successfully moved mesh
Moved mesh in = 56.22 s



Morph iteration 5
-----------------
Calculating patchDisplacement as distance to nearest surface point ...
Wanted displacement : average:0.0181031 min:9.9465e-09 max:0.541101
Calculated surface displacement in = 0.15 s


Detecting near surfaces ...
Overriding nearest with intersection of close gaps at 0 out of 124071 points.
Overriding displacement on features :
   implicit features    : false
   explicit features    : true
   multi-patch features : false

Detected 0 baffle edges out of 246572 edges.
Initially selected 2261 points out of 124071 for reverse attraction.
Selected 6653 points out of 124071 for reverse attraction.
Stringing feature edges : changed 14 points
Stringing feature edges : changed 0 points
Attraction:
     linear   : max:(0 -0.541101 5.55112e-17) avg:(-2.35416e-05 -7.03426e-07 -0.00326648)
     feature  : max:(-0.00781978 0.00237707 -0.0164387) avg:(3.60597e-05 -9.59314e-09 6.64661e-06)
Feature analysis : total master points:124071 attraction to :
    feature point   : 6
    feature edge    : 1506
    nearest surface : 0
    rest            : 122559

--> FOAM Warning : Displacement (-9.40505e-05 5.51157e-10 5.41066e-09) at mesh point 215157 coord (-12.1998 3.39804e-09 0.956776) points through the surrounding patch faces
Smoothing displacement ...
Iteration 0
Iteration 10
Iteration 20
Displacement smoothed in = 15.44 s


Moving mesh ...

Iteration 0
Moving mesh using displacement scaling : min:1  max:1
Checking faces in error :
    non-orthogonality > 65  degrees                        : 0
    faces with face pyramid volume < 1e-13                 : 0
    faces with face-decomposition tet quality < 1e-15      : 1
    faces with concavity > 80  degrees                     : 0
    faces with skewness > 4   (internal) or 20  (boundary) : 0
    faces with interpolation weights (0..1)  < 0.02        : 0
    faces with volume ratio of neighbour cells < 0.01      : 0
    faces with face twist < 0.02                           : 0
    faces on cells with determinant < 0.001                : 0

Iteration 1
Moving mesh using displacement scaling : min:0.75  max:1
Checking faces in error :
    non-orthogonality > 65  degrees                        : 0
    faces with face pyramid volume < 1e-13                 : 0
    faces with face-decomposition tet quality < 1e-15      : 1
    faces with concavity > 80  degrees                     : 0
    faces with skewness > 4   (internal) or 20  (boundary) : 0
    faces with interpolation weights (0..1)  < 0.02        : 0
    faces with volume ratio of neighbour cells < 0.01      : 0
    faces with face twist < 0.02                           : 0
    faces on cells with determinant < 0.001                : 0

Iteration 2
Moving mesh using displacement scaling : min:0.5625  max:1
Checking faces in error :
    non-orthogonality > 65  degrees                        : 0
    faces with face pyramid volume < 1e-13                 : 0
    faces with face-decomposition tet quality < 1e-15      : 1
    faces with concavity > 80  degrees                     : 0
    faces with skewness > 4   (internal) or 20  (boundary) : 0
    faces with interpolation weights (0..1)  < 0.02        : 0
    faces with volume ratio of neighbour cells < 0.01      : 0
    faces with face twist < 0.02                           : 0
    faces on cells with determinant < 0.001                : 0

Iteration 3
Moving mesh using displacement scaling : min:0.421875  max:1
Checking faces in error :
    non-orthogonality > 65  degrees                        : 0
    faces with face pyramid volume < 1e-13                 : 0
    faces with face-decomposition tet quality < 1e-15      : 1
    faces with concavity > 80  degrees                     : 0
    faces with skewness > 4   (internal) or 20  (boundary) : 0
    faces with interpolation weights (0..1)  < 0.02        : 0
    faces with volume ratio of neighbour cells < 0.01      : 0
    faces with face twist < 0.02                           : 0
    faces on cells with determinant < 0.001                : 0

Iteration 4
Moving mesh using displacement scaling : min:0.316406  max:1
Checking faces in error :
    non-orthogonality > 65  degrees                        : 0
    faces with face pyramid volume < 1e-13                 : 0
    faces with face-decomposition tet quality < 1e-15      : 1
    faces with concavity > 80  degrees                     : 0
    faces with skewness > 4   (internal) or 20  (boundary) : 0
    faces with interpolation weights (0..1)  < 0.02        : 0
    faces with volume ratio of neighbour cells < 0.01      : 0
    faces with face twist < 0.02                           : 0
    faces on cells with determinant < 0.001                : 0

Iteration 5
Displacement scaling for error reduction set to 0.
Moving mesh using displacement scaling : min:0.237305  max:1
Checking faces in error :
    non-orthogonality > 65  degrees                        : 0
    faces with face pyramid volume < 1e-13                 : 0
    faces with face-decomposition tet quality < 1e-15      : 1
    faces with concavity > 80  degrees                     : 0
    faces with skewness > 4   (internal) or 20  (boundary) : 0
    faces with interpolation weights (0..1)  < 0.02        : 0
    faces with volume ratio of neighbour cells < 0.01      : 0
    faces with face twist < 0.02                           : 0
    faces on cells with determinant < 0.001                : 0

Iteration 6
Moving mesh using displacement scaling : min:0  max:1
Checking faces in error :
    non-orthogonality > 65  degrees                        : 0
    faces with face pyramid volume < 1e-13                 : 0
    faces with face-decomposition tet quality < 1e-15      : 0
    faces with concavity > 80  degrees                     : 0
    faces with skewness > 4   (internal) or 20  (boundary) : 0
    faces with interpolation weights (0..1)  < 0.02        : 0
    faces with volume ratio of neighbour cells < 0.01      : 0
    faces with face twist < 0.02                           : 0
    faces on cells with determinant < 0.001                : 0
Successfully moved mesh
Moved mesh in = 56.26 s



Morph iteration 6
-----------------
Calculating patchDisplacement as distance to nearest surface point ...
Wanted displacement : average:0.0083798 min:2.15547e-07 max:0.432558
Calculated surface displacement in = 0.16 s


Detecting near surfaces ...
Overriding nearest with intersection of close gaps at 1 out of 124071 points.
Overriding displacement on features :
   implicit features    : false
   explicit features    : true
   multi-patch features : false

Detected 0 baffle edges out of 246572 edges.
Initially selected 2259 points out of 124071 for reverse attraction.
Selected 6651 points out of 124071 for reverse attraction.
Stringing feature edges : changed 10 points
Stringing feature edges : changed 0 points
Attraction:
     linear   : max:(0 -0.432558 9.71445e-17) avg:(-2.0664e-05 -3.4696e-07 -0.0013084)
     feature  : max:(-0.00192404 -0.001897 0.0180142) avg:(2.3202e-05 4.47603e-08 3.35268e-06)
Feature analysis : total master points:124071 attraction to :
    feature point   : 4
    feature edge    : 1509
    nearest surface : 0
    rest            : 122558

--> FOAM Warning : Displacement (-4.37126e-05 7.77774e-11 2.21725e-09) at mesh point 215157 coord (-12.1999 3.9492e-09 0.956776) points through the surrounding patch faces
Smoothing displacement ...
Iteration 0
Iteration 10
Iteration 20
Displacement smoothed in = 15.42 s


Moving mesh ...

Iteration 0
Moving mesh using displacement scaling : min:1  max:1
Checking faces in error :
    non-orthogonality > 65  degrees                        : 0
    faces with face pyramid volume < 1e-13                 : 0
    faces with face-decomposition tet quality < 1e-15      : 3
    faces with concavity > 80  degrees                     : 0
    faces with skewness > 4   (internal) or 20  (boundary) : 0
    faces with interpolation weights (0..1)  < 0.02        : 0
    faces with volume ratio of neighbour cells < 0.01      : 0
    faces with face twist < 0.02                           : 0
    faces on cells with determinant < 0.001                : 0

Iteration 1
Moving mesh using displacement scaling : min:0.75  max:1
Checking faces in error :
    non-orthogonality > 65  degrees                        : 0
    faces with face pyramid volume < 1e-13                 : 0
    faces with face-decomposition tet quality < 1e-15      : 1
    faces with concavity > 80  degrees                     : 0
    faces with skewness > 4   (internal) or 20  (boundary) : 0
    faces with interpolation weights (0..1)  < 0.02        : 0
    faces with volume ratio of neighbour cells < 0.01      : 0
    faces with face twist < 0.02                           : 2
    faces on cells with determinant < 0.001                : 0

Iteration 2
Moving mesh using displacement scaling : min:0.5625  max:1
Checking faces in error :
    non-orthogonality > 65  degrees                        : 0
    faces with face pyramid volume < 1e-13                 : 0
    faces with face-decomposition tet quality < 1e-15      : 1
    faces with concavity > 80  degrees                     : 0
    faces with skewness > 4   (internal) or 20  (boundary) : 0
    faces with interpolation weights (0..1)  < 0.02        : 0
    faces with volume ratio of neighbour cells < 0.01      : 0
    faces with face twist < 0.02                           : 0
    faces on cells with determinant < 0.001                : 0

Iteration 3
Moving mesh using displacement scaling : min:0.421875  max:1
Checking faces in error :
    non-orthogonality > 65  degrees                        : 0
    faces with face pyramid volume < 1e-13                 : 0
    faces with face-decomposition tet quality < 1e-15      : 1
    faces with concavity > 80  degrees                     : 0
    faces with skewness > 4   (internal) or 20  (boundary) : 0
    faces with interpolation weights (0..1)  < 0.02        : 0
    faces with volume ratio of neighbour cells < 0.01      : 0
    faces with face twist < 0.02                           : 0
    faces on cells with determinant < 0.001                : 0

Iteration 4
Moving mesh using displacement scaling : min:0.316406  max:1
Checking faces in error :
    non-orthogonality > 65  degrees                        : 0
    faces with face pyramid volume < 1e-13                 : 0
    faces with face-decomposition tet quality < 1e-15      : 1
    faces with concavity > 80  degrees                     : 0
    faces with skewness > 4   (internal) or 20  (boundary) : 0
    faces with interpolation weights (0..1)  < 0.02        : 0
    faces with volume ratio of neighbour cells < 0.01      : 0
    faces with face twist < 0.02                           : 0
    faces on cells with determinant < 0.001                : 0

Iteration 5
Displacement scaling for error reduction set to 0.
Moving mesh using displacement scaling : min:0.237305  max:1
Checking faces in error :
    non-orthogonality > 65  degrees                        : 0
    faces with face pyramid volume < 1e-13                 : 0
    faces with face-decomposition tet quality < 1e-15      : 1
    faces with concavity > 80  degrees                     : 0
    faces with skewness > 4   (internal) or 20  (boundary) : 0
    faces with interpolation weights (0..1)  < 0.02        : 0
    faces with volume ratio of neighbour cells < 0.01      : 0
    faces with face twist < 0.02                           : 0
    faces on cells with determinant < 0.001                : 0

Iteration 6
Moving mesh using displacement scaling : min:0  max:1
Checking faces in error :
    non-orthogonality > 65  degrees                        : 0
    faces with face pyramid volume < 1e-13                 : 0
    faces with face-decomposition tet quality < 1e-15      : 0
    faces with concavity > 80  degrees                     : 0
    faces with skewness > 4   (internal) or 20  (boundary) : 0
    faces with interpolation weights (0..1)  < 0.02        : 0
    faces with volume ratio of neighbour cells < 0.01      : 0
    faces with face twist < 0.02                           : 0
    faces on cells with determinant < 0.001                : 0
Successfully moved mesh
Moved mesh in = 56.29 s



Morph iteration 7
-----------------
Calculating patchDisplacement as distance to nearest surface point ...
Wanted displacement : average:0.00363214 min:1.2787e-07 max:0.323925
Calculated surface displacement in = 0.15 s


Detecting near surfaces ...
Overriding nearest with intersection of close gaps at 12 out of 124071 points.
Overriding displacement on features :
   implicit features    : false
   explicit features    : true
   multi-patch features : false

Detected 0 baffle edges out of 246572 edges.
Initially selected 2247 points out of 124071 for reverse attraction.
Selected 6603 points out of 124071 for reverse attraction.
Stringing feature edges : changed 6 points
Stringing feature edges : changed 0 points
Attraction:
     linear   : max:(0 -0.323925 1.14275e-16) avg:(-1.75905e-05 -1.51931e-07 -0.000394716)
     feature  : max:(-0.00221461 0.00138493 0.0207369) avg:(1.18477e-05 -5.53609e-09 1.36677e-06)
Feature analysis : total master points:124071 attraction to :
    feature point   : 4
    feature edge    : 1501
    nearest surface : 0
    rest            : 122566

--> FOAM Warning : Displacement (-1.51517e-05 -1.66392e-11 7.19578e-10) at mesh point 215157 coord (-12.2 4.02697e-09 0.956776) points through the surrounding patch faces
Smoothing displacement ...
Iteration 0
Iteration 10
Iteration 20
Displacement smoothed in = 15.42 s


Moving mesh ...

Iteration 0
Moving mesh using displacement scaling : min:1  max:1
Checking faces in error :
    non-orthogonality > 65  degrees                        : 0
    faces with face pyramid volume < 1e-13                 : 0
    faces with face-decomposition tet quality < 1e-15      : 3
    faces with concavity > 80  degrees                     : 0
    faces with skewness > 4   (internal) or 20  (boundary) : 0
    faces with interpolation weights (0..1)  < 0.02        : 0
    faces with volume ratio of neighbour cells < 0.01      : 0
    faces with face twist < 0.02                           : 0
    faces on cells with determinant < 0.001                : 0

Iteration 1
Moving mesh using displacement scaling : min:0.75  max:1
Checking faces in error :
    non-orthogonality > 65  degrees                        : 0
    faces with face pyramid volume < 1e-13                 : 0
    faces with face-decomposition tet quality < 1e-15      : 3
    faces with concavity > 80  degrees                     : 0
    faces with skewness > 4   (internal) or 20  (boundary) : 0
    faces with interpolation weights (0..1)  < 0.02        : 0
    faces with volume ratio of neighbour cells < 0.01      : 0
    faces with face twist < 0.02                           : 0
    faces on cells with determinant < 0.001                : 0

Iteration 2
Moving mesh using displacement scaling : min:0.5625  max:1
Checking faces in error :
    non-orthogonality > 65  degrees                        : 0
    faces with face pyramid volume < 1e-13                 : 0
    faces with face-decomposition tet quality < 1e-15      : 3
    faces with concavity > 80  degrees                     : 0
    faces with skewness > 4   (internal) or 20  (boundary) : 0
    faces with interpolation weights (0..1)  < 0.02        : 0
    faces with volume ratio of neighbour cells < 0.01      : 0
    faces with face twist < 0.02                           : 0
    faces on cells with determinant < 0.001                : 0

Iteration 3
Moving mesh using displacement scaling : min:0.421875  max:1
Checking faces in error :
    non-orthogonality > 65  degrees                        : 0
    faces with face pyramid volume < 1e-13                 : 0
    faces with face-decomposition tet quality < 1e-15      : 3
    faces with concavity > 80  degrees                     : 0
    faces with skewness > 4   (internal) or 20  (boundary) : 0
    faces with interpolation weights (0..1)  < 0.02        : 0
    faces with volume ratio of neighbour cells < 0.01      : 0
    faces with face twist < 0.02                           : 0
    faces on cells with determinant < 0.001                : 0

Iteration 4
Moving mesh using displacement scaling : min:0.316406  max:1
Checking faces in error :
    non-orthogonality > 65  degrees                        : 0
    faces with face pyramid volume < 1e-13                 : 0
    faces with face-decomposition tet quality < 1e-15      : 2
    faces with concavity > 80  degrees                     : 0
    faces with skewness > 4   (internal) or 20  (boundary) : 0
    faces with interpolation weights (0..1)  < 0.02        : 0
    faces with volume ratio of neighbour cells < 0.01      : 0
    faces with face twist < 0.02                           : 1
    faces on cells with determinant < 0.001                : 0

Iteration 5
Displacement scaling for error reduction set to 0.
Moving mesh using displacement scaling : min:0.237305  max:1
Checking faces in error :
    non-orthogonality > 65  degrees                        : 0
    faces with face pyramid volume < 1e-13                 : 0
    faces with face-decomposition tet quality < 1e-15      : 1
    faces with concavity > 80  degrees                     : 0
    faces with skewness > 4   (internal) or 20  (boundary) : 0
    faces with interpolation weights (0..1)  < 0.02        : 0
    faces with volume ratio of neighbour cells < 0.01      : 0
    faces with face twist < 0.02                           : 2
    faces on cells with determinant < 0.001                : 0

Iteration 6
Moving mesh using displacement scaling : min:0  max:1
Checking faces in error :
    non-orthogonality > 65  degrees                        : 0
    faces with face pyramid volume < 1e-13                 : 0
    faces with face-decomposition tet quality < 1e-15      : 0
    faces with concavity > 80  degrees                     : 0
    faces with skewness > 4   (internal) or 20  (boundary) : 0
    faces with interpolation weights (0..1)  < 0.02        : 0
    faces with volume ratio of neighbour cells < 0.01      : 0
    faces with face twist < 0.02                           : 0
    faces on cells with determinant < 0.001                : 0
Successfully moved mesh
Moved mesh in = 56.35 s



Morph iteration 8
-----------------
Calculating patchDisplacement as distance to nearest surface point ...
Wanted displacement : average:0.00153768 min:7.0659e-10 max:0.22078
Calculated surface displacement in = 0.15 s


Detecting near surfaces ...
Overriding nearest with intersection of close gaps at 12 out of 124071 points.
Overriding displacement on features :
   implicit features    : false
   explicit features    : true
   multi-patch features : false

Detected 0 baffle edges out of 246572 edges.
Initially selected 2255 points out of 124071 for reverse attraction.
Selected 6635 points out of 124071 for reverse attraction.
Stringing feature edges : changed 5 points
Stringing feature edges : changed 0 points
Attraction:
     linear   : max:(0 -0.22078 9.71445e-17) avg:(-1.13099e-05 -9.10753e-09 -8.03554e-05)
     feature  : max:(0.00166165 -0.00527604 -0.0129202) avg:(4.30293e-06 2.68751e-08 1.9337e-07)
Feature analysis : total master points:124071 attraction to :
    feature point   : 4
    feature edge    : 1509
    nearest surface : 0
    rest            : 122558

--> FOAM Warning : Displacement (-3.95438e-05 1.2312e-05 -0.000122581) at mesh point 191040 coord (-12.0863 -1.26806 0.172077) points through the surrounding patch faces
Smoothing displacement ...
Iteration 0
Iteration 10
Iteration 20
Displacement smoothed in = 15.4 s


Moving mesh ...

Iteration 0
Moving mesh using displacement scaling : min:1  max:1
Checking faces in error :
    non-orthogonality > 65  degrees                        : 0
    faces with face pyramid volume < 1e-13                 : 0
    faces with face-decomposition tet quality < 1e-15      : 12
    faces with concavity > 80  degrees                     : 0
    faces with skewness > 4   (internal) or 20  (boundary) : 0
    faces with interpolation weights (0..1)  < 0.02        : 0
    faces with volume ratio of neighbour cells < 0.01      : 0
    faces with face twist < 0.02                           : 1
    faces on cells with determinant < 0.001                : 0

Iteration 1
Moving mesh using displacement scaling : min:0.75  max:1
Checking faces in error :
    non-orthogonality > 65  degrees                        : 0
    faces with face pyramid volume < 1e-13                 : 0
    faces with face-decomposition tet quality < 1e-15      : 5
    faces with concavity > 80  degrees                     : 0
    faces with skewness > 4   (internal) or 20  (boundary) : 0
    faces with interpolation weights (0..1)  < 0.02        : 0
    faces with volume ratio of neighbour cells < 0.01      : 0
    faces with face twist < 0.02                           : 0
    faces on cells with determinant < 0.001                : 0

Iteration 2
Moving mesh using displacement scaling : min:0.5625  max:1
Checking faces in error :
    non-orthogonality > 65  degrees                        : 0
    faces with face pyramid volume < 1e-13                 : 0
    faces with face-decomposition tet quality < 1e-15      : 3
    faces with concavity > 80  degrees                     : 0
    faces with skewness > 4   (internal) or 20  (boundary) : 0
    faces with interpolation weights (0..1)  < 0.02        : 0
    faces with volume ratio of neighbour cells < 0.01      : 0
    faces with face twist < 0.02                           : 0
    faces on cells with determinant < 0.001                : 0

Iteration 3
Moving mesh using displacement scaling : min:0.421875  max:1
Checking faces in error :
    non-orthogonality > 65  degrees                        : 0
    faces with face pyramid volume < 1e-13                 : 0
    faces with face-decomposition tet quality < 1e-15      : 3
    faces with concavity > 80  degrees                     : 0
    faces with skewness > 4   (internal) or 20  (boundary) : 0
    faces with interpolation weights (0..1)  < 0.02        : 0
    faces with volume ratio of neighbour cells < 0.01      : 0
    faces with face twist < 0.02                           : 0
    faces on cells with determinant < 0.001                : 0

Iteration 4
Moving mesh using displacement scaling : min:0.316406  max:1
Checking faces in error :
    non-orthogonality > 65  degrees                        : 0
    faces with face pyramid volume < 1e-13                 : 0
    faces with face-decomposition tet quality < 1e-15      : 3
    faces with concavity > 80  degrees                     : 0
    faces with skewness > 4   (internal) or 20  (boundary) : 0
    faces with interpolation weights (0..1)  < 0.02        : 0
    faces with volume ratio of neighbour cells < 0.01      : 0
    faces with face twist < 0.02                           : 0
    faces on cells with determinant < 0.001                : 0

Iteration 5
Displacement scaling for error reduction set to 0.
[...]
    faces with concavity > 80  degrees                     : 0
    faces with skewness > 4   (internal) or 20  (boundary) : 0
    faces with interpolation weights (0..1)  < 0.02        : 0
    faces with volume ratio of neighbour cells < 0.01      : 0
    faces with face twist < 0.02                           : 0
    faces on cells with determinant < 0.001                : 0

Merging all points on surface that
- are used by only two boundary faces and
- make an angle with a cosine of more than 0.866025.

Removing 4288 straight edge points ...

Edge intersection testing:
    Number of edges             : 11618193
    Number of edges to retest   : 19655
    Number of intersected edges : 117286

Undo iteration 0
----------------
Checking faces in error :
    non-orthogonality > 65  degrees                        : 0
    faces with face pyramid volume < 1e-13                 : 0
    faces with face-decomposition tet quality < 1e-15      : 0
    faces with concavity > 80  degrees                     : 0
    faces with skewness > 4   (internal) or 20  (boundary) : 0
    faces with interpolation weights (0..1)  < 0.02        : 0
    faces with volume ratio of neighbour cells < 0.01      : 0
    faces with face twist < 0.02                           : 0
    faces on cells with determinant < 0.001                : 0
Snapped mesh : cells:3821958  faces:11618193  points:3976317
Cells per refinement level:
    0	58320
    1	276480
    2	583392
    3	575646
    4	2226004
    5	102116
Writing mesh to time 2
Wrote mesh in = 85.14 s.
Mesh snapped in = 891.18 s.

Shrinking and layer addition phase
----------------------------------

Using mesh parameters 
{
    maxNonOrtho     65;
    maxBoundarySkewness 20;
    maxInternalSkewness 4;
    maxConcave      80;
    minVol          1e-13;
    minTetQuality   1e-15;
    minArea         -1;
    minTwist        0.02;
    minDeterminant  0.001;
    minFaceWeight   0.02;
    minVolRatio     0.01;
    minTriangleTwist -1;
    nSmoothScale    4;
    errorReduction  0.75;
}



Merging all faces of a cell
---------------------------
    - which are on the same patch
    - which make an angle < 60 degrees
      (cos:0.5)
    - as long as the resulting face doesn't become concave by more than 90 degrees
      (0=straight, 180=fully concave)

Merging 45 sets of faces.

Edge intersection testing:
    Number of edges             : 11618143
    Number of edges to retest   : 267
    Number of intersected edges : 117236

Undo iteration 0
----------------
Checking faces in error :
    non-orthogonality > 65  degrees                        : 0
    faces with face pyramid volume < 1e-13                 : 0
    faces with face-decomposition tet quality < 1e-15      : 6
    faces with concavity > 80  degrees                     : 0
    faces with skewness > 4   (internal) or 20  (boundary) : 0
    faces with interpolation weights (0..1)  < 0.02        : 0
    faces with volume ratio of neighbour cells < 0.01      : 0
    faces with face twist < 0.02                           : 0
    faces on cells with determinant < 0.001                : 0
Masters that need to be restored:6
Edge intersection testing:
    Number of edges             : 11618151
    Number of edges to retest   : 42
    Number of intersected edges : 117244


Undo iteration 1
----------------
Checking faces in error :
    non-orthogonality > 65  degrees                        : 0
    faces with face pyramid volume < 1e-13                 : 0
    faces with face-decomposition tet quality < 1e-15      : 0
    faces with concavity > 80  degrees                     : 0
    faces with skewness > 4   (internal) or 20  (boundary) : 0
    faces with interpolation weights (0..1)  < 0.02        : 0
    faces with volume ratio of neighbour cells < 0.01      : 0
    faces with face twist < 0.02                           : 0
    faces on cells with determinant < 0.001                : 0

Merging all points on surface that
- are used by only two boundary faces and
- make an angle with a cosine of more than 0.5.

Removing 55 straight edge points ...

Edge intersection testing:
    Number of edges             : 11618151
    Number of edges to retest   : 389
    Number of intersected edges : 117236

Undo iteration 0
----------------
Checking faces in error :
    non-orthogonality > 65  degrees                        : 0
    faces with face pyramid volume < 1e-13                 : 0
    faces with face-decomposition tet quality < 1e-15      : 0
    faces with concavity > 80  degrees                     : 0
    faces with skewness > 4   (internal) or 20  (boundary) : 0
    faces with interpolation weights (0..1)  < 0.02        : 0
    faces with volume ratio of neighbour cells < 0.01      : 0
    faces with face twist < 0.02                           : 0
    faces on cells with determinant < 0.001                : 0

Checking mesh manifoldness ...

Checking initial mesh ...
Checking faces in error :
    non-orthogonality > 65  degrees                        : 0
    faces with face pyramid volume < 1e-13                 : 0
    faces with face-decomposition tet quality < 1e-15      : 0
    faces with concavity > 80  degrees                     : 0
    faces with skewness > 4   (internal) or 20  (boundary) : 0
    faces with interpolation weights (0..1)  < 0.02        : 0
    faces with volume ratio of neighbour cells < 0.01      : 0
    faces with face twist < 0.02                           : 0
    faces on cells with determinant < 0.001                : 0
Detected 0 illegal faces (concave, zero area or negative cell pyramid volume)

Adding in total 0 inter-processor patches to handle extrusion of non-manifold processor boundaries.

Handling points with inconsistent layer specification ...

Handling non-manifold points ...

Checking patch manifoldness ...
Outside of local patch is multiply connected across edges or points at 0 points.
Set displacement to zero for all 0 non-manifold points

Handling feature edges ...

Handling cells with warped patch faces ...
Set displacement to zero on 0 warped faces since layer would be > 0.5 of the size of the bounding box.

patch    faces    layers avg thickness[m]
                         near-wall overall
-----    -----    ------ --------- -------
gtsModel 45096    12     0.00041   0.057   

Selecting externalDisplacementMeshMover displacementMedialAxis
displacementMedialAxis : Calculating distance to Medial Axis ...
displacementMedialAxis : Smoothing normals ...
    Iteration 0   residual 0.0191616
displacementMedialAxis : Inserting points on patch frontAndBack if angle to nearest layer patch > 30 degrees.
displacementMedialAxis : Inserting points on patch inletBB if angle to nearest layer patch > 30 degrees.
displacementMedialAxis : Inserting points on patch outletBB if angle to nearest layer patch > 30 degrees.
displacementMedialAxis : Inserting points on patch lowerWallBB if angle to nearest layer patch > 30 degrees.
displacementMedialAxis : Inserting points on patch upperWallBB if angle to nearest layer patch > 30 degrees.
displacementMedialAxis : Inserting points on patch inlet if angle to nearest layer patch > 30 degrees.
displacementMedialAxis : Inserting points on patch outlet if angle to nearest layer patch > 30 degrees.
displacementMedialAxis : Inserting points on patch lateral if angle to nearest layer patch > 30 degrees.
displacementMedialAxis : Inserting points on patch top if angle to nearest layer patch > 30 degrees.
displacementMedialAxis : Inserting points on patch bottomNoSlip if angle to nearest layer patch > 30 degrees.
displacementMedialAxis : Inserting points on patch bottomSlip if angle to nearest layer patch > 30 degrees.
displacementMedialAxis : Smoothing normals in interior ...
    Iteration 0   residual 0.0222813

Layer addition iteration 0
--------------------------

Determining displacement for added points according to pointNormal ...
Detected 0 points with point normal pointing through faces.
Reset displacement at 0 points to average of surrounding points.

displacementMedialAxis : Smoothing using Medial Axis ...
displacementMedialAxis : Reducing layer thickness at 0 nodes where thickness to medial axis distance is large 
displacementMedialAxis : Removing isolated regions ...
displacementMedialAxis : Number of isolated points extrusion stopped : 0
displacementMedialAxis : Smoothing field ...
    Iteration 0   residual 0.000131295
displacementMedialAxis : Moving mesh ...
displacementMedialAxis : Iteration 0
Moving mesh using displacement scaling : min:1  max:1
Checking faces in error :
    non-orthogonality > 65  degrees                        : 0
    faces with face pyramid volume < 1e-13                 : 0
    faces with face-decomposition tet quality < 1e-15      : 7
    faces with concavity > 80  degrees                     : 0
    faces with skewness > 4   (internal) or 20  (boundary) : 0
    faces with interpolation weights (0..1)  < 0.02        : 0
    faces with volume ratio of neighbour cells < 0.01      : 0
    faces with face twist < 0.02                           : 2
    faces on cells with determinant < 0.001                : 0
displacementMedialAxis : Iteration 1
Moving mesh using displacement scaling : min:0.75  max:1
Checking faces in error :
    non-orthogonality > 65  degrees                        : 0
    faces with face pyramid volume < 1e-13                 : 0
    faces with face-decomposition tet quality < 1e-15      : 6
    faces with concavity > 80  degrees                     : 0
    faces with skewness > 4   (internal) or 20  (boundary) : 0
    faces with interpolation weights (0..1)  < 0.02        : 0
    faces with volume ratio of neighbour cells < 0.01      : 0
    faces with face twist < 0.02                           : 0
    faces on cells with determinant < 0.001                : 0
displacementMedialAxis : Iteration 2
Moving mesh using displacement scaling : min:0.5625  max:1
Checking faces in error :
    non-orthogonality > 65  degrees                        : 0
    faces with face pyramid volume < 1e-13                 : 0
    faces with face-decomposition tet quality < 1e-15      : 6
    faces with concavity > 80  degrees                     : 0
    faces with skewness > 4   (internal) or 20  (boundary) : 0
    faces with interpolation weights (0..1)  < 0.02        : 0
    faces with volume ratio of neighbour cells < 0.01      : 0
    faces with face twist < 0.02                           : 0
    faces on cells with determinant < 0.001                : 0
displacementMedialAxis : Iteration 3
displacementMedialAxis : Displacement scaling for error reduction set to 0.
Moving mesh using displacement scaling : min:0.421875  max:1
Checking faces in error :
    non-orthogonality > 65  degrees                        : 0
    faces with face pyramid volume < 1e-13                 : 0
    faces with face-decomposition tet quality < 1e-15      : 6
    faces with concavity > 80  degrees                     : 0
    faces with skewness > 4   (internal) or 20  (boundary) : 0
    faces with interpolation weights (0..1)  < 0.02        : 0
    faces with volume ratio of neighbour cells < 0.01      : 0
    faces with face twist < 0.02                           : 0
    faces on cells with determinant < 0.001                : 0
displacementMedialAxis : Iteration 4
Moving mesh using displacement scaling : min:0  max:1
Checking faces in error :
    non-orthogonality > 65  degrees                        : 0
    faces with face pyramid volume < 1e-13                 : 0
    faces with face-decomposition tet quality < 1e-15      : 0
    faces with concavity > 80  degrees                     : 0
    faces with skewness > 4   (internal) or 20  (boundary) : 0
    faces with interpolation weights (0..1)  < 0.02        : 0
    faces with volume ratio of neighbour cells < 0.01      : 0
    faces with face twist < 0.02                           : 0
    faces on cells with determinant < 0.001                : 0
displacementMedialAxis : Successfully moved mesh
displacementMedialAxis : Finished moving mesh ...
truncateDisplacement : Unextruded 0 faces due to non-consecutive vertices being extruded.
truncateDisplacement : Unextruded 0 faces due to stringed edges with inconsistent extrusion.

Setting up information for layer truncation ...

Checking mesh with layer ...
Checking faces in error :
    non-orthogonality > 65  degrees                        : 14
    faces with face pyramid volume < 1e-13                 : 0
    faces with face-decomposition tet quality < 1e-15      : 5791
    faces with concavity > 80  degrees                     : 0
    faces with skewness > 4   (internal) or 20  (boundary) : 0
    faces with interpolation weights (0..1)  < 0.02        : 0
    faces with volume ratio of neighbour cells < 0.01      : 0
    faces with face twist < 0.02                           : 1
    faces on cells with determinant < 0.001                : 39433
Detected 45239 illegal faces (concave, zero area or negative cell pyramid volume)
Extruding 27007 out of 45096 faces (59.8878%). Removed extrusion at 11445 faces.
Added 531755 out of 541152 cells (98.2635%).


Layer addition iteration 1
--------------------------

Determining displacement for added points according to pointNormal ...
Detected 0 points with point normal pointing through faces.
Reset displacement at 0 points to average of surrounding points.

displacementMedialAxis : Smoothing using Medial Axis ...
displacementMedialAxis : Reducing layer thickness at 0 nodes where thickness to medial axis distance is large 
displacementMedialAxis : Removing isolated regions ...
displacementMedialAxis : Number of isolated points extrusion stopped : 1222
displacementMedialAxis : Smoothing field ...
    Iteration 0   residual 0.000679157
displacementMedialAxis : Moving mesh ...
displacementMedialAxis : Iteration 0
Moving mesh using displacement scaling : min:1  max:1
Checking faces in error :
    non-orthogonality > 65  degrees                        : 0
    faces with face pyramid volume < 1e-13                 : 0
    faces with face-decomposition tet quality < 1e-15      : 0
    faces with concavity > 80  degrees                     : 0
    faces with skewness > 4   (internal) or 20  (boundary) : 0
    faces with interpolation weights (0..1)  < 0.02        : 0
    faces with volume ratio of neighbour cells < 0.01      : 0
    faces with face twist < 0.02                           : 0
    faces on cells with determinant < 0.001                : 0
displacementMedialAxis : Successfully moved mesh
displacementMedialAxis : Finished moving mesh ...
truncateDisplacement : Unextruded 0 faces due to non-consecutive vertices being extruded.
truncateDisplacement : Unextruded 0 faces due to stringed edges with inconsistent extrusion.

Setting up information for layer truncation ...

Checking mesh with layer ...
Checking faces in error :
    non-orthogonality > 65  degrees                        : 1
    faces with face pyramid volume < 1e-13                 : 0
    faces with face-decomposition tet quality < 1e-15      : 6
    faces with concavity > 80  degrees                     : 0
    faces with skewness > 4   (internal) or 20  (boundary) : 0
    faces with interpolation weights (0..1)  < 0.02        : 0
    faces with volume ratio of neighbour cells < 0.01      : 0
    faces with face twist < 0.02                           : 0
    faces on cells with determinant < 0.001                : 0
Detected 7 illegal faces (concave, zero area or negative cell pyramid volume)
Extruding 24604 out of 45096 faces (54.5592%). Removed extrusion at 5 faces.
Added 138004 out of 541152 cells (25.5019%).


Layer addition iteration 2
--------------------------

Determining displacement for added points according to pointNormal ...
Detected 0 points with point normal pointing through faces.
Reset displacement at 0 points to average of surrounding points.

displacementMedialAxis : Smoothing using Medial Axis ...
displacementMedialAxis : Reducing layer thickness at 0 nodes where thickness to medial axis distance is large 
displacementMedialAxis : Removing isolated regions ...
displacementMedialAxis : Number of isolated points extrusion stopped : 9
displacementMedialAxis : Smoothing field ...
    Iteration 0   residual 0.000679522
displacementMedialAxis : Moving mesh ...
displacementMedialAxis : Iteration 0
Moving mesh using displacement scaling : min:1  max:1
Checking faces in error :
    non-orthogonality > 65  degrees                        : 0
    faces with face pyramid volume < 1e-13                 : 0
    faces with face-decomposition tet quality < 1e-15      : 0
    faces with concavity > 80  degrees                     : 0
    faces with skewness > 4   (internal) or 20  (boundary) : 0
    faces with interpolation weights (0..1)  < 0.02        : 0
    faces with volume ratio of neighbour cells < 0.01      : 0
    faces with face twist < 0.02                           : 0
    faces on cells with determinant < 0.001                : 0
displacementMedialAxis : Successfully moved mesh
displacementMedialAxis : Finished moving mesh ...
truncateDisplacement : Unextruded 0 faces due to non-consecutive vertices being extruded.
truncateDisplacement : Unextruded 0 faces due to stringed edges with inconsistent extrusion.

Setting up information for layer truncation ...

Checking mesh with layer ...
Checking faces in error :
    non-orthogonality > 65  degrees                        : 0
    faces with face pyramid volume < 1e-13                 : 0
    faces with face-decomposition tet quality < 1e-15      : 0
    faces with concavity > 80  degrees                     : 0
    faces with skewness > 4   (internal) or 20  (boundary) : 0
    faces with interpolation weights (0..1)  < 0.02        : 0
    faces with volume ratio of neighbour cells < 0.01      : 0
    faces with face twist < 0.02                           : 0
    faces on cells with determinant < 0.001                : 0
Detected 0 illegal faces (concave, zero area or negative cell pyramid volume)
Extruding 24600 out of 45096 faces (54.5503%). Removed extrusion at 0 faces.
Added 137968 out of 541152 cells (25.4952%).
Edge intersection testing:
    Number of edges             : 12039001
    Number of edges to retest   : 0
    Number of intersected edges : 255197
Writing 137968 added cells to cellSet addedCells
Writing 113368 faces inside added layer to faceSet layerFaces

Writing fields with layer information:
    nSurfaceLayers    : actual number of layers
    thickness         : overall layer thickness
    thicknessFraction : overall layer thickness (fraction of desired thickness)


patch    faces    layers   overall thickness
                           [m]       [%]
-----    -----    ------   ---       ---
gtsModel 45096    3.06     0.0294    40.5    


Removing zero-sized patches:
    frontAndBack type patch at position 0
    inletBB type patch at position 1
    outletBB type patch at position 2
    lowerWallBB type wall at position 3
    upperWallBB type patch at position 4

Layer mesh : cells:3959926  faces:12039001  points:4121289
Cells per refinement level:
    0	58320
    1	276480
    2	583392
    3	575646
    4	2354094
    5	111994
Writing mesh to time 3
Wrote mesh in = 302.32 s.
Layers added in = 302.32 s.
Checking final mesh ...
Checking faces in error :
    non-orthogonality > 65  degrees                        : 0
    faces with face pyramid volume < 1e-13                 : 0
    faces with face-decomposition tet quality < 1e-15      : 0
    faces with concavity > 80  degrees                     : 0
    faces with skewness > 4   (internal) or 20  (boundary) : 0
    faces with interpolation weights (0..1)  < 0.02        : 0
    faces with volume ratio of neighbour cells < 0.01      : 0
    faces with face twist < 0.02                           : 0
    faces on cells with determinant < 0.001                : 0
Finished meshing without any errors
Finished meshing in = 1587.61 s.
End

