/*---------------------------------------------------------------------------*\
  =========                 |
  \\      /  F ield         | OpenFOAM: The Open Source CFD Toolbox
   \\    /   O peration     | Website:  https://openfoam.org
    \\  /    A nd           | Version:  7
     \\/     M anipulation  |
\*---------------------------------------------------------------------------*/
Build  : 7
Exec   : checkMesh
Date   : Mar 03 2023
Time   : 18:53:49
Host   : "compute-0-0.local"
PID    : 13725
I/O    : uncollated
Case   : /share/storage/finzeo/Mallas/GTS-Storms/testmalla10
nProcs : 1
sigFpe : Enabling floating point exception trapping (FOAM_SIGFPE).
fileModificationChecking : Monitoring run-time modified files using timeStampMaster (fileModificationSkew 10)
allowSystemOperations : Allowing user-supplied system call operations

// * * * * * * * * * * * * * * * * * * * * * * * * * * * * * * * * * * * * * //
Create time

Create polyMesh for time = 0

Time = 0

Mesh stats
    points:           27550526
    faces:            79969037
    internal faces:   78956302
    cells:            26215848
    faces per cell:   6.06219
    boundary patches: 7
    point zones:      0
    face zones:       0
    cell zones:       0

Overall number of cells of each type:
    hexahedra:     25366139
    prisms:        53035
    wedges:        2
    pyramids:      0
    tet wedges:    107
    tetrahedra:    0
    polyhedra:     796565
    Breakdown of polyhedra by number of faces:
        faces   number of cells
            4   5334
            5   3491
            6   67357
            7   277506
            8   41145
            9   360099
           10   397
           11   220
           12   38049
           13   14
           14   136
           15   2802
           18   15

Checking topology...
    Boundary definition OK.
    Cell to face addressing OK.
    Point usage OK.
    Upper triangular ordering OK.
    Face vertices OK.
    Number of regions: 1 (OK).

Checking patch topology for multiply connected surfaces...
                   Patch    Faces   Points                  Surface topology
                   inlet     4024     4089  ok (non-closed singly connected)
                  outlet    10308    10492  ok (non-closed singly connected)
                gtsModel   900606   911867  ok (non-closed singly connected)
                    left     4284     4468  ok (non-closed singly connected)
                   right     4284     4468  ok (non-closed singly connected)
                     top     6158     6351  ok (non-closed singly connected)
                   floor    83071    84485  ok (non-closed singly connected)

Checking geometry...
    Overall domain bounding box (-7.43733 -1.55326 -0.0762799) (4.37197 1.55326 2.05748)
    Mesh has 3 geometric (non-empty/wedge) directions (1 1 1)
    Mesh has 3 solution (non-empty) directions (1 1 1)
    Boundary openness (-9.13165e-17 1.20927e-16 -2.31321e-14) OK.
 ***High aspect ratio cells found, Max aspect ratio: 3.45234e+100, number of cells 22613
  <<Writing 22613 cells with high aspect ratio to set highAspectRatioCells
    Minimum face area = 7.28977e-10. Maximum face area = 0.0145475.  Face area magnitudes OK.
 ***Zero or negative cell volume detected.  Minimum negative volume: -0.000697073, Number of negative volume cells: 22611
  <<Writing 22611 zero volume cells to set zeroVolumeCells
    Mesh non-orthogonality Max: 179.999 average: 7.49234
   *Number of severely non-orthogonal (> 70 degrees) faces: 17973.
 ***Number of non-orthogonality errors: 67917.
  <<Writing 85890 non-orthogonal faces to set nonOrthoFaces
 ***Error in face pyramids: 140544 faces are incorrectly oriented.
  <<Writing 88240 faces with incorrect orientation to set wrongOrientedFaces
 ***Max skewness = 957889, 10887 highly skew faces detected which may impair the quality of the results
  <<Writing 10887 skew faces to set skewFaces
    Coupled point location match (average 0) OK.

Failed 5 mesh checks.

End

